units(length='cm', time='s', quantity='mol', act_energy='kcal/mol')

ideal_gas(name='gas',
          elements="H D T C Ci O Oi N Ne Ar He Si S F Cl Br I X",
          species="""N2          Ne          CH2F2(1)    O2(2)
                     H2O(3)      OH(4)       H(5)        O(6)
                     H2(7)       HO2(10)     H2O2(11)    CO(12)
                     CO2(13)     HCO(14)     CH2O(19)    F(37)
                     HF(38)      CHF(40)     CHF3(41)    CF2(42)
                     CF3(44)     CHFO(46)    CF3O(47)    CF2O(48)
                     CF(49)      CFO(50)     CHFCF2(54)  CH2CF2(56)
                     CF2CF2(60)  C2H3F2(63)  C2H3F2(64)  C2H2F3(66)
                     C2H2F3(67)  C2HF4(68)   C2HF2(71)   CF2CH(72)
                     CHF2(81)    S(128)      S(130)      CHFO2(136)
                     CHFO2(138)  CHO2(142)   CFO2(143)   CHF2O(146)
                     CF2O2(147)  CF2O2(152)  O2(176)     CHF2O(220)
                     S(252)      C2HF3(276)  S(286)      S(406)
                     CF3O2(416)  S(444)      S(467)      S(603)
                     S(899)      CF2O2(932)  S(962)      S(1007)
                     S(1017)     S(1096)     S(1175)     S(1224)
                     S(2126)""",
          reactions='all',
          transport='Mix',
          initial_state=state(temperature=300.0, pressure=OneAtm))

#-------------------------------------------------------------------------------
# Element data
#-------------------------------------------------------------------------------

element(symbol='Ci', atomic_mass=13.003)
element(symbol='D', atomic_mass=2.014)
element(symbol='Oi', atomic_mass=17.999)
element(symbol='T', atomic_mass=3.016)
element(symbol='X', atomic_mass=195.083)
#-------------------------------------------------------------------------------
# Species data
#-------------------------------------------------------------------------------

species(name='N2',
        atoms='N:2',
        thermo=(NASA([200.00, 1000.00],
                     [ 3.53101000E+00, -1.23661000E-04, -5.02999000E-07,
                       2.43531000E-09, -1.40881000E-12, -1.04698000E+03,
                       2.96747000E+00]),
                NASA([1000.00, 6000.00],
                     [ 2.95258000E+00,  1.39690000E-03, -4.92632000E-07,
                       7.86010000E-11, -4.60755000E-15, -9.23949000E+02,
                       5.87189000E+00])),
        transport=gas_transport(geom='linear',
                                diam=3.621,
                                well_depth=97.53,
                                polar=1.76,
                                rot_relax=4.0))

species(name='Ne',
        atoms='Ne:1',
        thermo=(NASA([200.00, 1000.00],
                     [ 2.50000000E+00,  0.00000000E+00,  0.00000000E+00,
                       0.00000000E+00,  0.00000000E+00, -7.45375000E+02,
                       3.35532000E+00]),
                NASA([1000.00, 6000.00],
                     [ 2.50000000E+00,  0.00000000E+00,  0.00000000E+00,
                       0.00000000E+00,  0.00000000E+00, -7.45375000E+02,
                       3.35532000E+00])),
        transport=gas_transport(geom='atom',
                                diam=3.758,
                                well_depth=148.6))

species(name='CH2F2(1)',
        atoms='C:1 F:2 H:2',
        thermo=(NASA([298.00, 1100.00],
                     [ 1.73901000E+00,  1.19379000E-02, -2.69321000E-07,
                      -5.51894000E-09,  2.18135000E-12, -5.54397000E+04,
                       1.62342000E+01]),
                NASA([1100.00, 3000.00],
                     [ 4.55850000E+00,  8.31979000E-03, -3.37157000E-06,
                       6.18797000E-10, -4.19515000E-14, -5.65062000E+04,
                       4.36637000E-01])),
        transport=gas_transport(geom='nonlinear',
                                diam=4.123,
                                well_depth=262.0,
                                dipole=1.8))

species(name='O2(2)',
        atoms='O:2',
        thermo=(NASA([100.00, 1074.55],
                     [ 3.53732242E+00, -1.21571637E-03,  5.31620217E-06,
                      -4.89446388E-09,  1.45846240E-12, -1.03858849E+03,
                       4.68368186E+00]),
                NASA([1074.55, 5000.00],
                     [ 3.15382086E+00,  1.67804362E-03, -7.69974187E-07,
                       1.51275451E-10, -1.08782405E-14, -1.04081731E+03,
                       6.16755802E+00])),
        transport=gas_transport(geom='linear',
                                diam=3.467,
                                well_depth=106.7))

species(name='H2O(3)',
        atoms='H:2 O:1',
        thermo=(NASA([100.00, 1130.23],
                     [ 4.05763525E+00, -7.87929311E-04,  2.90875350E-06,
                      -1.47516305E-09,  2.12833045E-13, -3.02815866E+04,
                      -3.11361962E-01]),
                NASA([1130.23, 5000.00],
                     [ 2.84325449E+00,  2.75107891E-03, -7.81027841E-07,
                       1.07242800E-10, -5.79385414E-15, -2.99586146E+04,
                       5.91039696E+00])),
        transport=gas_transport(geom='nonlinear',
                                diam=2.641,
                                well_depth=809.102,
                                polar=1.76,
                                rot_relax=4.0))

species(name='OH(4)',
        atoms='H:1 O:1',
        thermo=(NASA([100.00, 1145.76],
                     [ 3.51456840E+00,  2.92733106E-05, -5.32150213E-07,
                       1.01947475E-09, -3.85939231E-13,  3.41425418E+03,
                       2.10434752E+00]),
                NASA([1145.76, 5000.00],
                     [ 3.07193716E+00,  6.04019964E-04, -1.39806623E-08,
                      -2.13440654E-11,  2.48061237E-15,  3.57938796E+03,
                       4.57801513E+00])),
        transport=gas_transport(geom='linear',
                                diam=2.75,
                                well_depth=80.0))

species(name='H(5)',
        atoms='H:1',
        thermo=(NASA([100.00, 3598.68],
                     [ 2.50000000E+00, -1.84483083E-15,  2.71425215E-18,
                      -1.30027816E-21,  1.91033296E-25,  2.54742178E+04,
                      -4.44972896E-01]),
                NASA([3598.68, 5000.00],
                     [ 2.50000000E+00, -2.82484701E-12,  1.07036546E-15,
                      -1.78887662E-19,  1.11248406E-23,  2.54742178E+04,
                      -4.44972914E-01])),
        transport=gas_transport(geom='atom',
                                diam=2.05,
                                well_depth=145.0))

species(name='O(6)',
        atoms='O:1',
        thermo=(NASA([100.00, 3598.68],
                     [ 2.50000000E+00, -1.84483083E-15,  2.71425215E-18,
                      -1.30027816E-21,  1.91033296E-25,  2.92302441E+04,
                       5.12616427E+00]),
                NASA([3598.68, 5000.00],
                     [ 2.50000000E+00, -2.82484701E-12,  1.07036546E-15,
                      -1.78887662E-19,  1.11248406E-23,  2.92302441E+04,
                       5.12616426E+00])),
        transport=gas_transport(geom='atom',
                                diam=2.75,
                                well_depth=80.0))

species(name='H2(7)',
        atoms='H:2',
        thermo=(NASA([100.00, 1959.07],
                     [ 3.43536405E+00,  2.12710954E-04, -2.78626405E-07,
                       3.40268235E-10, -7.76034644E-14, -1.03135984E+03,
                      -3.90841705E+00]),
                NASA([1959.07, 5000.00],
                     [ 2.78817306E+00,  5.87631545E-04,  1.59014816E-07,
                      -5.52747855E-11,  4.34317420E-15, -5.96148537E+02,
                       1.12689783E-01])),
        transport=gas_transport(geom='linear',
                                diam=2.833,
                                well_depth=59.7))

species(name='HO2(10)',
        atoms='H:1 O:2',
        thermo=(NASA([200.00, 1000.00],
                     [ 4.30180000E+00, -4.74912000E-03,  2.11583000E-05,
                      -2.42764000E-08,  9.29225000E-12,  2.64018000E+02,
                       3.71666000E+00]),
                NASA([1000.00, 5000.00],
                     [ 4.17229000E+00,  1.88118000E-03, -3.46277000E-07,
                       1.94658000E-11,  1.76257000E-16,  3.10207000E+01,
                       2.95768000E+00])),
        transport=gas_transport(geom='nonlinear',
                                diam=3.458,
                                well_depth=107.4,
                                rot_relax=1.0))

species(name='H2O2(11)',
        atoms='H:2 O:2',
        thermo=(NASA([200.00, 1000.00],
                     [ 4.31515000E+00, -8.47391000E-04,  1.76404000E-05,
                      -2.26763000E-08,  9.08950000E-12, -1.77067000E+04,
                       3.27373000E+00]),
                NASA([1000.00, 6000.00],
                     [ 4.57977000E+00,  4.05326000E-03, -1.29845000E-06,
                       1.98211000E-10, -1.13969000E-14, -1.80072000E+04,
                       6.64971000E-01])),
        transport=gas_transport(geom='nonlinear',
                                diam=4.196,
                                well_depth=289.3))

species(name='CO(12)',
        atoms='C:1 O:1',
        thermo=(NASA([100.00, 1571.64],
                     [ 3.56837976E+00, -8.52123452E-04,  2.48917230E-06,
                      -1.56330523E-09,  3.13593773E-13, -1.42842549E+04,
                       3.57912263E+00]),
                NASA([1571.64, 5000.00],
                     [ 2.91307187E+00,  1.64657103E-03, -6.88611376E-07,
                       1.21036622E-10, -7.84012380E-15, -1.41808873E+04,
                       6.71042732E+00])),
        transport=gas_transport(geom='linear',
                                diam=3.69,
                                well_depth=91.7,
                                polar=1.76,
                                rot_relax=4.0))

species(name='CO2(13)',
        atoms='C:1 O:2',
        thermo=(NASA([200.00, 1000.00],
                     [ 2.35681000E+00,  8.98413000E-03, -7.12206000E-06,
                       2.45730000E-09, -1.42885000E-13, -4.83720000E+04,
                       9.90090000E+00]),
                NASA([1000.00, 6000.00],
                     [ 4.63651000E+00,  2.74146000E-03, -9.95898000E-07,
                       1.60387000E-10, -9.16199000E-15, -4.90249000E+04,
                      -1.93490000E+00])),
        transport=gas_transport(geom='linear',
                                diam=3.941,
                                well_depth=195.201))

species(name='HCO(14)',
        atoms='C:1 H:1 O:1',
        thermo=(NASA([200.00, 1000.00],
                     [ 4.23755000E+00, -3.32075000E-03,  1.40030000E-05,
                      -1.34240000E-08,  4.37416000E-12,  3.87241000E+03,
                       3.30835000E+00]),
                NASA([1000.00, 6000.00],
                     [ 3.92002000E+00,  2.52279000E-03, -6.71004000E-07,
                       1.05616000E-10, -7.43798000E-15,  3.65343000E+03,
                       3.58077000E+00])),
        transport=gas_transport(geom='nonlinear',
                                diam=3.59,
                                well_depth=498.002))

species(name='CH2O(19)',
        atoms='C:1 H:2 O:1',
        thermo=(NASA([200.00, 1000.00],
                     [ 4.79372000E+00, -9.90833000E-03,  3.73220000E-05,
                      -3.79285000E-08,  1.31773000E-11, -1.43792000E+04,
                       6.02798000E-01]),
                NASA([1000.00, 6000.00],
                     [ 3.16953000E+00,  6.19321000E-03, -2.25056000E-06,
                       3.65976000E-10, -2.20149000E-14, -1.45487000E+04,
                       6.04208000E+00])),
        transport=gas_transport(geom='nonlinear',
                                diam=3.59,
                                well_depth=498.002,
                                rot_relax=2.0))

species(name='F(37)',
        atoms='F:1',
        thermo=(NASA([298.00, 1400.00],
                     [ 2.90371000E+00, -6.35296000E-04,  2.64735000E-07,
                       7.69063000E-11, -5.45254000E-14,  8.67227000E+03,
                       2.70828000E+00]),
                NASA([1400.00, 3000.00],
                     [ 2.65117000E+00, -1.40130000E-04,  5.19236000E-08,
                      -8.84954000E-12,  5.90280000E-16,  8.75829000E+03,
                       4.07857000E+00])),
        transport=gas_transport(geom='atom',
                                diam=2.75,
                                well_depth=80.0))

species(name='HF(38)',
        atoms='F:1 H:1',
        thermo=(NASA([298.00, 1250.00],
                     [ 3.43657000E+00,  4.86021000E-04, -1.25240000E-06,
                       1.36475000E-09, -4.09574000E-13, -3.38001000E+04,
                       1.20682000E+00]),
                NASA([1250.00, 3000.00],
                     [ 2.78130000E+00,  1.03959000E-03, -2.41735000E-07,
                       2.68416000E-11, -1.09766000E-15, -3.35042000E+04,
                       5.01970000E+00])),
        transport=gas_transport(geom='linear',
                                diam=3.148,
                                well_depth=330.001,
                                dipole=1.92,
                                polar=2.46,
                                rot_relax=1.0))

species(name='CHF(40)',
        atoms='C:1 F:1 H:1',
        thermo=(NASA([298.00, 1300.00],
                     [ 3.34484000E+00,  2.35461000E-03,  1.93983000E-06,
                      -2.65251000E-09,  7.91169000E-13,  1.85140000E+04,
                       7.05286000E+00]),
                NASA([1300.00, 3000.00],
                     [ 4.48366000E+00,  1.74964000E-03, -5.04790000E-07,
                       1.08953000E-10, -9.87898000E-15,  1.79581000E+04,
                       2.89222000E-01])),
        transport=gas_transport(geom='nonlinear',
                                diam=4.123,
                                well_depth=262.0,
                                dipole=1.8))

species(name='CHF3(41)',
        atoms='C:1 F:3 H:1',
        thermo=(NASA([298.00, 1300.00],
                     [ 6.80758000E-01,  2.39859000E-02, -2.18336000E-05,
                       9.98026000E-09, -1.85179000E-12, -8.49894000E+04,
                       2.10617000E+01]),
                NASA([1300.00, 3000.00],
                     [ 7.52417000E+00,  5.23005000E-03, -2.03600000E-06,
                       3.57296000E-10, -2.30997000E-14, -8.70225000E+04,
                      -1.46112000E+01])),
        transport=gas_transport(geom='nonlinear',
                                diam=4.123,
                                well_depth=262.0,
                                dipole=1.8))

species(name='CF2(42)',
        atoms='C:1 F:2',
        thermo=(NASA([298.00, 1300.00],
                     [ 2.28591000E+00,  1.07608000E-02, -1.05382000E-05,
                       4.89881000E-09, -8.86384000E-13, -2.35212000E+04,
                       1.31348000E+01]),
                NASA([1300.00, 3000.00],
                     [ 5.33121000E+00,  1.97748000E-03, -9.60248000E-07,
                       2.10704000E-10, -1.59540000E-14, -2.43714000E+04,
                      -2.56367000E+00])),
        transport=gas_transport(geom='nonlinear',
                                diam=3.977,
                                well_depth=108.0))

species(name='CF3(44)',
        atoms='C:1 F:3',
        thermo=(NASA([298.00, 1250.00],
                     [ 1.35729000E+00,  2.15758000E-02, -2.39020000E-05,
                       1.29611000E-08, -2.80173000E-12, -5.73913000E+04,
                       1.86474000E+01]),
                NASA([1250.00, 3000.00],
                     [ 7.73167000E+00,  2.27115000E-03, -8.90496000E-07,
                       1.52938000E-10, -9.50838000E-15, -5.91457000E+04,
                      -1.40202000E+01])),
        transport=gas_transport(geom='nonlinear',
                                diam=4.32,
                                well_depth=121.0))

species(name='CHFO(46)',
        atoms='C:1 F:1 H:1 O:1',
        thermo=(NASA([298.00, 1150.00],
                     [ 2.11850000E+00,  1.07740000E-02, -5.51582000E-06,
                       5.81519000E-10,  2.17042000E-13, -4.63567000E+04,
                       1.46524000E+01]),
                NASA([1150.00, 3000.00],
                     [ 4.81925000E+00,  5.05418000E-03, -2.01421000E-06,
                       3.63591000E-10, -2.44724000E-14, -4.72631000E+04,
                       9.72251000E-02])),
        transport=gas_transport(geom='nonlinear',
                                diam=4.906,
                                well_depth=350.5))

species(name='CF3O(47)',
        atoms='C:1 F:3 O:1',
        thermo=(NASA([298.00, 1250.00],
                     [ 1.38724000E+00,  2.98955000E-02, -3.42745000E-05,
                       1.91806000E-08, -4.24959000E-12, -8.03369000E+04,
                       1.97276000E+01]),
                NASA([1250.00, 3000.00],
                     [ 9.82041000E+00,  3.38916000E-03, -1.44654000E-06,
                       2.76962000E-10, -1.95580000E-14, -8.25866000E+04,
                      -2.31971000E+01])),
        transport=gas_transport(geom='nonlinear',
                                diam=4.906,
                                well_depth=350.5))

species(name='CF2O(48)',
        atoms='C:1 F:2 O:1',
        thermo=(NASA([298.00, 1150.00],
                     [ 1.17614000E+00,  2.10870000E-02, -2.39216000E-05,
                       1.39949000E-08, -3.37605000E-12, -7.79513000E+04,
                       1.91134000E+01]),
                NASA([1150.00, 3000.00],
                     [ 6.79131000E+00,  3.38305000E-03, -1.43012000E-06,
                       2.71226000E-10, -1.90524000E-14, -7.94540000E+04,
                      -9.48312000E+00])),
        transport=gas_transport(geom='nonlinear',
                                diam=4.906,
                                well_depth=350.5))

species(name='CF(49)',
        atoms='C:1 F:1',
        thermo=(NASA([298.00, 1100.00],
                     [ 3.35384000E+00,  2.09097000E-04,  3.20774000E-06,
                      -3.66875000E-09,  1.19863000E-12,  2.79077000E+04,
                       6.33463000E+00]),
                NASA([1100.00, 3000.00],
                     [ 3.66497000E+00,  9.73681000E-04, -4.10982000E-07,
                       8.00629000E-11, -5.64981000E-15,  2.77242000E+04,
                       4.28163000E+00])),
        transport=gas_transport(geom='linear',
                                diam=3.635,
                                well_depth=94.2))

species(name='CFO(50)',
        atoms='C:1 F:1 O:1',
        thermo=(NASA([298.00, 1250.00],
                     [ 2.94061000E+00,  7.47092000E-03, -6.21833000E-06,
                       2.62916000E-09, -4.73222000E-13, -2.17923000E+04,
                       1.11689000E+01]),
                NASA([1250.00, 3000.00],
                     [ 5.14996000E+00,  1.84938000E-03, -7.40232000E-07,
                       1.32785000E-10, -8.83060000E-15, -2.24884000E+04,
                      -4.96830000E-01])),
        transport=gas_transport(geom='nonlinear',
                                diam=4.0,
                                well_depth=860.0))

species(name='CHFCF2(54)',
        atoms='C:2 F:3 H:1',
        thermo=(NASA([298.00, 1100.00],
                     [ 1.35521000E+00,  3.23113000E-02, -3.57904000E-05,
                       2.09758000E-08, -5.14220000E-12, -6.06458000E+04,
                       1.92938000E+01]),
                NASA([1100.00, 3000.00],
                     [ 9.29782000E+00,  6.69066000E-03, -2.71841000E-06,
                       4.97590000E-10, -3.35867000E-14, -6.27051000E+04,
                      -2.09391000E+01])),
        transport=gas_transport(geom='nonlinear',
                                diam=4.442,
                                well_depth=251.5,
                                dipole=1.4))

species(name='CH2CF2(56)',
        atoms='C:2 F:2 H:2',
        thermo=(NASA([298.00, 1100.00],
                     [-5.44641000E-01,  3.61013000E-02, -4.24522000E-05,
                       2.68678000E-08, -7.00490000E-12, -4.15789000E+04,
                       2.59139000E+01]),
                NASA([1100.00, 3000.00],
                     [ 7.52692000E+00,  8.16727000E-03, -3.24648000E-06,
                       5.85466000E-10, -3.90185000E-14, -4.35755000E+04,
                      -1.44929000E+01])),
        transport=gas_transport(geom='nonlinear',
                                diam=4.442,
                                well_depth=251.5,
                                dipole=1.4))

species(name='CF2CF2(60)',
        atoms='C:2 F:4',
        thermo=(NASA([298.00, 1100.00],
                     [ 2.59735000E+00,  3.39059000E-02, -4.12239000E-05,
                       2.60507000E-08, -6.78805000E-12, -8.11789000E+04,
                       1.27972000E+01]),
                NASA([1100.00, 3000.00],
                     [ 1.13243000E+01,  4.99631000E-03, -2.11782000E-06,
                       3.98619000E-10, -2.75039000E-14, -8.34266000E+04,
                      -3.12702000E+01])),
        transport=gas_transport(geom='nonlinear',
                                diam=4.647,
                                well_depth=254.2))

species(name='C2H3F2(63)',
        atoms='C:2 F:2 H:3',
        thermo=(NASA([298.00, 1100.00],
                     [ 1.21237000E+00,  2.99528000E-02, -2.78097000E-05,
                       1.45866000E-08, -3.35363000E-12, -3.48400000E+04,
                       2.11127000E+01]),
                NASA([1100.00, 3000.00],
                     [ 6.79826000E+00,  1.21309000E-02, -5.28714000E-06,
                       1.03624000E-09, -7.40874000E-14, -3.62912000E+04,
                      -7.21609000E+00])),
        transport=gas_transport(geom='nonlinear',
                                diam=4.798,
                                well_depth=323.4,
                                dipole=2.3))

species(name='C2H3F2(64)',
        atoms='C:2 F:2 H:3',
        thermo=(NASA([298.00, 1150.00],
                     [ 2.31422000E+00,  2.37018000E-02, -1.63892000E-05,
                       5.72572000E-09, -8.07296000E-13, -3.79949000E+04,
                       1.53584000E+01]),
                NASA([1150.00, 3000.00],
                     [ 6.47721000E+00,  1.24876000E-02, -5.35782000E-06,
                       1.03049000E-09, -7.24509000E-14, -3.92020000E+04,
                      -6.31953000E+00])),
        transport=gas_transport(geom='nonlinear',
                                diam=4.798,
                                well_depth=323.4,
                                dipole=2.3))

species(name='C2H2F3(66)',
        atoms='C:2 F:3 H:2',
        thermo=(NASA([298.00, 1250.00],
                     [ 1.81368000E+00,  3.27767000E-02, -3.24205000E-05,
                       1.68313000E-08, -3.60024000E-12, -5.60946000E+04,
                       1.85911000E+01]),
                NASA([1250.00, 3000.00],
                     [ 9.42456000E+00,  9.38455000E-03, -4.06950000E-06,
                       7.95489000E-10, -5.68744000E-14, -5.81660000E+04,
                      -2.03132000E+01])),
        transport=gas_transport(geom='nonlinear',
                                diam=4.798,
                                well_depth=323.4,
                                dipole=2.3))

species(name='C2H2F3(67)',
        atoms='C:2 F:3 H:2',
        thermo=(NASA([298.00, 1150.00],
                     [ 2.09008000E+00,  2.93901000E-02, -2.55533000E-05,
                       1.17108000E-08, -2.31129000E-12, -5.53731000E+04,
                       1.78136000E+01]),
                NASA([1150.00, 3000.00],
                     [ 8.87024000E+00,  1.00895000E-02, -4.39156000E-06,
                       8.57582000E-10, -6.11641000E-14, -5.72955000E+04,
                      -1.72490000E+01])),
        transport=gas_transport(geom='nonlinear',
                                diam=4.798,
                                well_depth=323.4,
                                dipole=2.3))

species(name='C2HF4(68)',
        atoms='C:2 F:4 H:1',
        thermo=(NASA([298.00, 1250.00],
                     [ 3.03038000E+00,  3.13636000E-02, -2.95190000E-05,
                       1.39839000E-08, -2.71243000E-12, -8.20314000E+04,
                       1.40888000E+01]),
                NASA([1250.00, 3000.00],
                     [ 1.16275000E+01,  7.10202000E-03, -3.03218000E-06,
                       5.80310000E-10, -4.05959000E-14, -8.45173000E+04,
                      -3.04865000E+01])),
        transport=gas_transport(geom='nonlinear',
                                diam=4.85,
                                well_depth=323.4,
                                dipole=2.0))

species(name='C2HF2(71)',
        atoms='C:2 F:2 H:1',
        thermo=(NASA([298.00, 1050.00],
                     [ 1.48306000E+00,  2.52896000E-02, -2.89899000E-05,
                       1.83569000E-08, -4.98659000E-12, -6.27504000E+03,
                       1.87682000E+01]),
                NASA([1050.00, 3000.00],
                     [ 7.72646000E+00,  5.00295000E-03, -1.86131000E-06,
                       3.11994000E-10, -1.95361000E-14, -7.90030000E+03,
                      -1.28643000E+01])),
        transport=gas_transport(geom='nonlinear',
                                diam=4.442,
                                well_depth=251.5,
                                dipole=1.4))

species(name='CF2CH(72)',
        atoms='C:2 F:2 H:1',
        thermo=(NASA([298.00, 1050.00],
                     [ 6.47126000E-01,  3.16596000E-02, -4.14529000E-05,
                       2.86094000E-08, -8.06098000E-12, -9.43854000E+03,
                       2.17994000E+01]),
                NASA([1050.00, 3000.00],
                     [ 7.41103000E+00,  6.48170000E-03, -3.06314000E-06,
                       6.25625000E-10, -4.55126000E-14, -1.10174000E+04,
                      -1.16171000E+01])),
        transport=gas_transport(geom='nonlinear',
                                diam=4.442,
                                well_depth=251.5,
                                dipole=1.4))

species(name='CHF2(81)',
        atoms='C:1 F:2 H:1',
        thermo=(NASA([298.00, 1150.00],
                     [ 1.83276000E+00,  1.34164000E-02, -9.54328000E-06,
                       2.95930000E-09, -2.79200000E-13, -3.08571000E+04,
                       1.67589000E+01]),
                NASA([1150.00, 3000.00],
                     [ 5.44828000E+00,  4.41165000E-03, -1.74189000E-06,
                       3.09200000E-10, -2.01762000E-14, -3.19610000E+04,
                      -2.29455000E+00])),
        transport=gas_transport(geom='nonlinear',
                                diam=4.123,
                                well_depth=262.0,
                                dipole=1.8))

species(name='S(128)',
        atoms='C:1 F:2 H:1 O:2',
        thermo=(NASA([10.00, 497.32],
                     [ 3.92725000E+00,  4.70123000E-03,  7.24333000E-05,
                      -1.66658000E-07,  1.13367000E-10, -5.14702000E+04,
                       1.15590000E+01]),
                NASA([497.32, 3000.00],
                     [ 3.77619000E+00,  1.96241000E-02, -1.39226000E-05,
                       4.52949000E-09, -5.50671000E-13, -5.16247000E+04,
                       1.04780000E+01])),
        transport=gas_transport(geom='nonlinear',
                                diam=5.198,
                                well_depth=386.937))

species(name='S(130)',
        atoms='C:2 F:4 H:2',
        thermo=(NASA([298.00, 1150.00],
                     [ 9.52865000E-01,  4.12528000E-02, -4.06818000E-05,
                       2.11611000E-08, -4.66006000E-12, -1.07383000E+05,
                       2.25582000E+01]),
                NASA([1150.00, 3000.00],
                     [ 1.15136000E+01,  9.88762000E-03, -3.99141000E-06,
                       7.26044000E-10, -4.86781000E-14, -1.10308000E+05,
                      -3.17170000E+01])),
        transport=gas_transport(geom='nonlinear',
                                diam=4.85,
                                well_depth=323.4,
                                dipole=2.0))

species(name='CHFO2(136)',
        atoms='C:1 F:1 H:1 O:2',
        thermo=(NASA([10.00, 624.17],
                     [ 4.07975000E+00, -6.70713000E-03,  7.61072000E-05,
                      -1.23288000E-07,  6.38153000E-11, -3.01120000E+04,
                       8.13301000E+00]),
                NASA([624.17, 3000.00],
                     [ 2.49608000E+00,  1.65225000E-02, -1.11531000E-05,
                       3.48846000E-09, -4.10791000E-13, -3.01691000E+04,
                       1.29858000E+01])),
        transport=gas_transport(geom='nonlinear',
                                diam=4.926,
                                well_depth=356.513))

species(name='CHFO2(138)',
        atoms='C:1 F:1 H:1 O:2',
        thermo=(NASA([100.00, 944.75],
                     [ 3.47850339E+00,  2.78736332E-03,  3.40140977E-05,
                      -4.87394313E-08,  1.94679982E-11, -1.74149135E+04,
                       1.23962566E+01]),
                NASA([944.75, 5000.00],
                     [ 8.92825452E+00,  1.90202345E-03,  1.90854108E-07,
                      -1.26600336E-11, -4.31398138E-15, -1.94348704E+04,
                      -1.88265684E+01])),
        transport=gas_transport(geom='nonlinear',
                                diam=5.815,
                                well_depth=438.966))

species(name='CHO2(142)',
        atoms='C:1 H:1 O:2',
        thermo=(NASA([100.00, 1184.09],
                     [ 3.51544937E+00,  1.12655990E-02, -9.58080292E-06,