units(length='cm', time='s', quantity='mol', act_energy='kcal/mol')

ideal_gas(name='gas',
          elements="H D T C Ci O Oi N Ne Ar He Si S F Cl Br I X",
          species="""N2                Ne                C3H2F4(1)
                     OH(2)             O2(3)             H2O(4)
                     H(5)              O(6)              H2(7)
                     Ar(8)             He(9)             HO2(10)
                     H2O2(11)          CO(12)            CO2(13)
                     HCO(14)           C(T)(15)          CH(16)
                     CH2(T)(17)        CH3(18)           CH2O(19)
                     HCCO(20)          C2H(21)           C2H2(22)
                     H2CC(23)          CH2(S)(24)        CH3OH(25)
                     CH3O(26)          CH2CO(27)         C2H3(28)
                     C2H4(29)          CH4(30)           C2H6(31)
                     C2H5(32)          CH2OH(33)         CH3CO(34)
                     CH2CHO(35)        CH3CHO(36)        C3H2F4(37)
                     C3H2F4(38)        C6H4F8(39)        C3H2F4(40)
                     C3H2F3(41)        C3H2F5(42)        C3H2F4(43)
                     O2(44)            C3H2F4O2(45)      CF3COF(46)
                     CF2(47)           CH2CF2(48)        CF3(49)
                     C3H2F3O2(50)      C3H2F4(51)        [O]OC(F)(F)F(52)
                     CF3CCH(53)        C3H2F4O2(54)      CH3CFCF3(55)
                     C4H2F7(56)        C3H2F5O2(57)      C3H2F3O2(58)
                     C3H2F5(59)        C3H2F4O(60)       C3H2F4(61)
                     C4H2F7O2(62)      CH2CHF(63)        C3H3F4O2(64)
                     C3H2F5O2(65)      E-CHCFCF3(66)     C3HF4(67)
                     C2HF(68)          C6H3F8(69)        C6H3F8(70)
                     C6H3F8(71)        C6H3F8O2(72)      C3HF4O(73)
                     C1OO1(74)         [O]C[O](75)       C3HF4O3(76)
                     CHO2(77)          C6H3F8O2(78)      C4H2F7(79)
                     C6H3F8O2(80)      C3H2F3O2(81)      C6H3F8O2(82)
                     C6H3F8O2(83)      CH2CFO(84)        CF3O(85)
                     F(86)             CF2O(87)          HF(88)
                     CH2F(89)          C2HFO(90)         C6H3F8O2(91)
                     CHOCFCF3(92)      C3HF4O3(93)       CHFO(94)
                     C3H3F4O(95)       C3H3F4O(96)       C3H3F4O(97)
                     C2H3FO(98)        C3HF4O3(99)       C3H2F4(100)
                     CHF(101)          C3H2F4O(102)      FC1OO1(103)
                     [O]C([O])F(104)   CFO2(105)         C3H2F4(106)
                     C3HF4O3(107)      C3H2F4(108)       CF4(109)
                     C3H2F4(110)       C3HF4(111)        C3HF4O2(112)
                     C6H3F8O4(113)     C2H2FO3(114)      C3H2F4(115)
                     C3HF3O(116)       C3HF3O(117)       C3HF3O(118)
                     C2HF(119)         C3HF4O2(120)      C3HF3O(121)
                     C3H3F3(122)       C2HF3(123)        CHFCF2(124)
                     C3H2F4O(125)      C3HF4O(126)       CF3-CHF(127)
                     C2HF4O2(128)      C2HF4O2(129)      C6H3F8O4(130)
                     C6H3F8O4(131)     C4H3F4O3(132)     C4H3F4O3(133)
                     C4H3F4O(134)      [O]OCF(135)       C4H2F4O2(136)
                     C3H2F4O(137)      C3HF4O2(138)      C3HF4O2(139)
                     CHF3(140)         C3HF4O2(141)      C2HF2O(142)
                     CH2F2(143)        C3H2F4(144)       C2H2O(145)
                     C2HF2O3(146)      C3H3F4O3(147)     C3HF3(148)
                     C3HF3(149)        C3H2F4O(150)      C3H3F4O2(151)
                     C2H2F3(152)       C3H2F2(153)       CFO(156)
                     CHF2-CHF(167)     CH2F-CF2(168)     CHFCF[Z](172)
                     CF2CH(173)        CF3CHO(175)       CF2CO(176)
                     C3HF4(229)        C3H3F5(282)       C#C[C](F)F(308)
                     C3HF4O(360)       [O]O[C](F)F(560)  C2H2F3O2(567)
                     C2HF2O(630)       C3HF3(879)        C3H2F4(1130)
                     C3F4(1563)        C2HF3O(2406)      FC1(F)OO1(2429)
                     CF2O2(2430)       C2H3FO(3165)      C3H2F4O(3620)
                     C2HF3O(3996)      C2HFO3(4151)      C3H2F4(6752)
                     C3H4F3(8927)      C3HF4O(9408)      C2HF3O(12049)
                     C3H4F3O2(21084)   C2H2F3O2(25231)   C3H2F4O3(25679)
                     C3H2F4O3(25779)   C3HF4O3(25891)    C3HF3O(32940)
                     C3HF4O3(32978)    C3HF3O(33135)     CFO3(40603)""",
          reactions='all',
          transport='Mix',
          initial_state=state(temperature=300.0, pressure=OneAtm))

#-------------------------------------------------------------------------------
# Element data
#-------------------------------------------------------------------------------

element(symbol='Ci', atomic_mass=13.003)
element(symbol='D', atomic_mass=2.014)
element(symbol='Oi', atomic_mass=17.999)
element(symbol='T', atomic_mass=3.016)
element(symbol='X', atomic_mass=195.083)
#-------------------------------------------------------------------------------
# Species data
#-------------------------------------------------------------------------------

species(name='N2',
        atoms='N:2',
        thermo=(NASA([200.00, 1000.00],
                     [ 3.53101000E+00, -1.23661000E-04, -5.02999000E-07,
                       2.43531000E-09, -1.40881000E-12, -1.04698000E+03,
                       2.96747000E+00]),
                NASA([1000.00, 6000.00],
                     [ 2.95258000E+00,  1.39690000E-03, -4.92632000E-07,
                       7.86010000E-11, -4.60755000E-15, -9.23949000E+02,
                       5.87189000E+00])),
        transport=gas_transport(geom='linear',
                                diam=3.621,
                                well_depth=97.53,
                                polar=1.76,
                                rot_relax=4.0))

species(name='Ne',
        atoms='Ne:1',
        thermo=(NASA([200.00, 1000.00],
                     [ 2.50000000E+00,  0.00000000E+00,  0.00000000E+00,
                       0.00000000E+00,  0.00000000E+00, -7.45375000E+02,
                       3.35532000E+00]),
                NASA([1000.00, 6000.00],
                     [ 2.50000000E+00,  0.00000000E+00,  0.00000000E+00,
                       0.00000000E+00,  0.00000000E+00, -7.45375000E+02,
                       3.35532000E+00])),
        transport=gas_transport(geom='atom',
                                diam=3.758,
                                well_depth=148.6))

species(name='C3H2F4(1)',
        atoms='C:3 F:4 H:2',
        thermo=(NASA([200.00, 1000.00],
                     [ 1.00153000E+00,  4.98008000E-02, -4.61878000E-05,
                       1.64792000E-08, -3.13156000E-13, -9.99487000E+04,
                       2.07747000E+01]),
                NASA([1000.00, 6000.00],
                     [ 1.43110000E+01,  9.44785000E-03, -3.52268000E-06,
                       5.79392000E-10, -3.50621000E-14, -1.03384000E+05,
                      -4.69130000E+01])),
        transport=gas_transport(geom='nonlinear',
                                diam=4.9,
                                well_depth=371.0))

species(name='OH(2)',
        atoms='H:1 O:1',
        thermo=(NASA([100.00, 1145.76],
                     [ 3.51456839E+00,  2.92734385E-05, -5.32150627E-07,
                       1.01947524E-09, -3.85939419E-13,  3.41425418E+03,
                       2.10434757E+00]),
                NASA([1145.76, 5000.00],
                     [ 3.07193725E+00,  6.04019830E-04, -1.39805878E-08,
                      -2.13440825E-11,  2.48061376E-15,  3.57938792E+03,
                       4.57801466E+00])),
        transport=gas_transport(geom='linear',
                                diam=2.75,
                                well_depth=80.0))

species(name='O2(3)',
        atoms='O:2',
        thermo=(NASA([100.00, 1074.56],
                     [ 3.53732180E+00, -1.21570917E-03,  5.31617782E-06,
                      -4.89443369E-09,  1.45845021E-12, -1.03858846E+03,
                       4.68368410E+00]),
                NASA([1074.56, 5000.00],
                     [ 3.15382431E+00,  1.67803791E-03, -7.69970964E-07,
                       1.51274701E-10, -1.08781789E-14, -1.04081881E+03,
                       6.16753849E+00])),
        transport=gas_transport(geom='linear',
                                diam=3.458,
                                well_depth=107.4,
                                polar=1.6,
                                rot_relax=3.8))

species(name='H2O(4)',
        atoms='H:2 O:1',
        thermo=(NASA([100.00, 1130.24],
                     [ 4.05763586E+00, -7.87936112E-04,  2.90877576E-06,
                      -1.47518961E-09,  2.12843333E-13, -3.02815866E+04,
                      -3.11364142E-01]),
                NASA([1130.24, 5000.00],
                     [ 2.84325034E+00,  2.75108564E-03, -7.81031596E-07,
                       1.07243665E-10, -5.79392453E-15, -2.99586127E+04,
                       5.91042055E+00])),
        transport=gas_transport(geom='nonlinear',
                                diam=2.605,
                                well_depth=572.402,
                                dipole=1.844,
                                rot_relax=4.0))

species(name='H(5)',
        atoms='H:1',
        thermo=(NASA([100.00, 3959.16],
                     [ 2.50000000E+00,  1.49297701E-14, -2.05327212E-17,
                       9.23927165E-21, -1.28063600E-24,  2.54742178E+04,
                      -4.44972896E-01]),
                NASA([3959.16, 5000.00],
                     [ 2.49999988E+00,  1.19009278E-10, -4.23987408E-14,
                       6.68965199E-18, -3.94352207E-22,  2.54742179E+04,
                      -4.44972115E-01])),
        transport=gas_transport(geom='atom',
                                diam=2.05,
                                well_depth=145.0))

species(name='O(6)',
        atoms='O:1',
        thermo=(NASA([100.00, 3959.16],
                     [ 2.50000000E+00,  1.49297701E-14, -2.05327212E-17,
                       9.23927165E-21, -1.28063600E-24,  2.92302441E+04,
                       5.12616427E+00]),
                NASA([3959.16, 5000.00],
                     [ 2.49999988E+00,  1.19009278E-10, -4.23987408E-14,
                       6.68965199E-18, -3.94352207E-22,  2.92302442E+04,
                       5.12616505E+00])),
        transport=gas_transport(geom='atom',
                                diam=2.75,
                                well_depth=80.0))

species(name='H2(7)',
        atoms='H:2',
        thermo=(NASA([100.00, 1959.07],
                     [ 3.43536386E+00,  2.12712593E-04, -2.78630123E-07,
                       3.40271151E-10, -7.76041865E-14, -1.03135983E+03,
                      -3.90841633E+00]),
                NASA([1959.07, 5000.00],
                     [ 2.78819279E+00,  5.87605915E-04,  1.59026815E-07,
                      -5.52771937E-11,  4.34334972E-15, -5.96160176E+02,
                       1.12572842E-01])),
        transport=gas_transport(geom='linear',
                                diam=2.92,
                                well_depth=38.0,
                                polar=0.79,
                                rot_relax=280.0))

species(name='Ar(8)',
        atoms='Ar:1',
        thermo=(NASA([200.00, 1000.00],
                     [ 2.50000000E+00,  0.00000000E+00,  0.00000000E+00,
                       0.00000000E+00,  0.00000000E+00, -7.45375000E+02,
                       4.37967000E+00]),
                NASA([1000.00, 6000.00],
                     [ 2.50000000E+00,  0.00000000E+00,  0.00000000E+00,
                       0.00000000E+00,  0.00000000E+00, -7.45375000E+02,
                       4.37967000E+00])),
        transport=gas_transport(geom='atom',
                                diam=3.33,
                                well_depth=136.501))

species(name='He(9)',
        atoms='He:1',
        thermo=(NASA([200.00, 1000.00],
                     [ 2.50000000E+00,  0.00000000E+00,  0.00000000E+00,
                       0.00000000E+00,  0.00000000E+00, -7.45375000E+02,
                       9.28724000E-01]),
                NASA([1000.00, 6000.00],
                     [ 2.50000000E+00,  0.00000000E+00,  0.00000000E+00,
                       0.00000000E+00,  0.00000000E+00, -7.45375000E+02,
                       9.28724000E-01])),
        transport=gas_transport(geom='atom',
                                diam=2.576,
                                well_depth=10.2))

species(name='HO2(10)',
        atoms='H:1 O:2',
        thermo=(NASA([200.00, 1000.00],
                     [ 4.30180000E+00, -4.74912000E-03,  2.11583000E-05,
                      -2.42764000E-08,  9.29225000E-12,  2.94808000E+02,
                       3.71666000E+00]),
                NASA([1000.00, 3500.00],
                     [ 4.01721000E+00,  2.23982000E-03, -6.33658000E-07,
                       1.14246000E-10, -1.07909000E-14,  1.11857000E+02,
                       3.78510000E+00])),
        transport=gas_transport(geom='nonlinear',
                                diam=3.458,
                                well_depth=107.4,
                                rot_relax=1.0))

species(name='H2O2(11)',
        atoms='H:2 O:2',
        thermo=(NASA([200.00, 1000.00],
                     [ 4.27611000E+00, -5.42822000E-04,  1.67336000E-05,
                      -2.15771000E-08,  8.62454000E-12, -1.77026000E+04,
                       3.43505000E+00]),
                NASA([1000.00, 3500.00],
                     [ 4.16500000E+00,  4.90832000E-03, -1.90139000E-06,
                       3.71186000E-10, -2.87908000E-14, -1.78618000E+04,
                       2.91616000E+00])),
        transport=gas_transport(geom='nonlinear',
                                diam=3.458,
                                well_depth=107.4,
                                rot_relax=3.8))

species(name='CO(12)',
        atoms='C:1 O:1',
        thermo=(NASA([100.00, 1571.64],
                     [ 3.56837966E+00, -8.52122508E-04,  2.48916982E-06,
                      -1.56330293E-09,  3.13593093E-13, -1.42842549E+04,
                       3.57912300E+00]),
                NASA([1571.64, 5000.00],
                     [ 2.91307498E+00,  1.64656661E-03, -6.88609141E-07,
                       1.21036145E-10, -7.84008723E-15, -1.41808889E+04,
                       6.71040926E+00])),
        transport=gas_transport(geom='linear',
                                diam=3.65,
                                well_depth=98.1,
                                polar=1.95,
                                rot_relax=1.8))

species(name='CO2(13)',
        atoms='C:1 O:2',
        thermo=(NASA([200.00, 1000.00],
                     [ 2.35677000E+00,  8.98460000E-03, -7.12356000E-06,
                       2.45919000E-09, -1.43700000E-13, -4.83720000E+04,
                       9.90105000E+00]),
                NASA([1000.00, 3500.00],
                     [ 3.85746000E+00,  4.41437000E-03, -2.21481000E-06,
                       5.23490000E-10, -4.72084000E-14, -4.87592000E+04,
                       2.27164000E+00])),
        transport=gas_transport(geom='linear',
                                diam=3.763,
                                well_depth=244.001,
                                polar=2.65,
                                rot_relax=2.1))

species(name='HCO(14)',
        atoms='C:1 H:1 O:1',
        thermo=(NASA([200.00, 1000.00],
                     [ 4.22119000E+00, -3.24393000E-03,  1.37799000E-05,
                      -1.33144000E-08,  4.33769000E-12,  3.83956000E+03,
                       3.39437000E+00]),
                NASA([1000.00, 3500.00],
                     [ 2.77217000E+00,  4.95696000E-03, -2.48446000E-06,
                       5.89162000E-10, -5.33509000E-14,  4.01192000E+03,
                       9.79834000E+00])),
        transport=gas_transport(geom='nonlinear',
                                diam=3.59,
                                well_depth=498.002))

species(name='C(T)(15)',
        atoms='C:1',
        thermo=(NASA([100.00, 3959.16],
                     [ 2.50000000E+00,  1.49297701E-14, -2.05327212E-17,
                       9.23927165E-21, -1.28063600E-24,  8.54745247E+04,
                       3.65978421E+00]),
                NASA([3959.16, 5000.00],
                     [ 2.49999988E+00,  1.19009278E-10, -4.23987408E-14,
                       6.68965199E-18, -3.94352207E-22,  8.54745248E+04,
                       3.65978499E+00])),
        transport=gas_transport(geom='atom',
                                diam=3.298,
                                well_depth=71.4))

species(name='CH(16)',
        atoms='C:1 H:1',
        thermo=(NASA([200.00, 1000.00],
                     [ 3.48982000E+00,  3.23836000E-04, -1.68899000E-06,
                       3.16217000E-09, -1.40609000E-12,  7.07973000E+04,
                       2.08401000E+00]),
                NASA([1000.00, 3500.00],
                     [ 2.87846000E+00,  9.70914000E-04,  1.44446000E-07,
                      -1.30688000E-10,  1.76079000E-14,  7.10124000E+04,
                       5.48498000E+00])),
        transport=gas_transport(geom='linear',
                                diam=2.75,
                                well_depth=80.0))

species(name='CH2(T)(17)',
        atoms='C:1 H:2',
        thermo=(NASA([100.00, 1104.57],
                     [ 4.01192395E+00, -1.54979436E-04,  3.26298023E-06,
                      -2.40422025E-09,  5.69497431E-13,  4.58676802E+04,
                       5.33200236E-01]),
                NASA([1104.57, 5000.00],
                     [ 3.14983422E+00,  2.96674194E-03, -9.76055446E-07,
                       1.54115181E-10, -9.50337275E-15,  4.60581389E+04,
                       4.77807473E+00])),
        transport=gas_transport(geom='nonlinear',
                                diam=3.8,
                                well_depth=144.001))

species(name='CH3(18)',
        atoms='C:1 H:3',
        thermo=(NASA([200.00, 1000.00],
                     [ 3.67359000E+00,  2.01095000E-03,  5.73022000E-06,
                      -6.87117000E-09,  2.54386000E-12,  1.64450000E+04,
                       1.60456000E+00]),
                NASA([1000.00, 3500.00],
                     [ 2.28572000E+00,  7.23990000E-03, -2.98714000E-06,
                       5.95685000E-10, -4.67154000E-14,  1.67756000E+04,
                       8.48007000E+00])),
        transport=gas_transport(geom='nonlinear',
                                diam=3.8,
                                well_depth=144.001))

species(name='CH2O(19)',
        atoms='C:1 H:2 O:1',
        thermo=(NASA([200.00, 1000.00],
                     [ 4.79372000E+00, -9.90833000E-03,  3.73220000E-05,
                      -3.79285000E-08,  1.31773000E-11, -1.43090000E+04,
                       6.02813000E-01]),
                NASA([1000.00, 3500.00],
                     [ 1.76069000E+00,  9.20000000E-03, -4.42259000E-06,
                       1.00641000E-09, -8.83856000E-14, -1.39958000E+04,
                       1.36563000E+01])),
        transport=gas_transport(geom='nonlinear',
                                diam=3.59,
                                well_depth=498.002,
                                rot_relax=2.0))

species(name='HCCO(20)',
        atoms='C:2 H:1 O:1',
        thermo=(NASA([298.00, 1000.00],
                     [ 2.25172000E+00,  1.76550000E-02, -2.37291000E-05,
                       1.72758000E-08, -5.06648000E-12,  2.00594000E+04,
                       1.24904000E+01]),
                NASA([1000.00, 4000.00],
                     [ 5.62821000E+00,  4.08534000E-03, -1.59345000E-06,
                       2.86261000E-10, -1.94078000E-14,  1.93272000E+04,
                      -3.93026000E+00])),
        transport=gas_transport(geom='nonlinear',
                                diam=2.5,
                                well_depth=150.001,
                                rot_relax=1.0))

species(name='C2H(21)',
        atoms='C:2 H:1',
        thermo=(NASA([200.00, 1000.00],
                     [ 2.88966000E+00,  1.34100000E-02, -2.84770000E-05,
                       2.94791000E-08, -1.09332000E-11,  6.68394000E+04,
                       6.22296000E+00]),
                NASA([1000.00, 3500.00],
                     [ 3.16781000E+00,  4.75222000E-03, -1.83787000E-06,
                       3.04190000E-10, -1.77233000E-14,  6.71211000E+04,
                       6.63589000E+00])),
        transport=gas_transport(geom='linear',
                                diam=4.1,
                                well_depth=209.001,
                                rot_relax=2.5))

species(name='C2H2(22)',
        atoms='C:2 H:2',
        thermo=(NASA([200.00, 1000.00],
                     [ 8.08681000E-01,  2.33616000E-02, -3.55172000E-05,
                       2.80152000E-08, -8.50073000E-12,  2.64290000E+04,
                       1.39397000E+01]),
                NASA([1000.00, 3500.00],
                     [ 4.14757000E+00,  5.96167000E-03, -2.37295000E-06,
                       4.67412000E-10, -3.61235000E-14,  2.59360000E+04,
                      -1.23028000E+00])),
        transport=gas_transport(geom='linear',
                                diam=4.1,
                                well_depth=209.001,
                                rot_relax=2.5))

species(name='H2CC(23)',
        atoms='C:2 H:2',
        thermo=(NASA([200.00, 1000.00],
                     [ 3.28155000E+00,  6.97643000E-03, -2.38528000E-06,
                      -1.21078000E-09,  9.82042000E-13,  4.83192000E+04,
                       5.92036000E+00]),
                NASA([1000.00, 6000.00],
                     [ 4.27807000E+00,  4.75623000E-03, -1.63007000E-06,
                       2.54623000E-10, -1.48860000E-14,  4.80140000E+04,
                       6.39979000E-01])),
        transport=gas_transport(geom='nonlinear',
                                diam=4.1,
                                well_depth=209.0,
                                rot_relax=2.5))

species(name='CH2(S)(24)',
        atoms='C:1 H:2',
        thermo=(NASA([100.00, 1442.35],
                     [ 4.10264409E+00, -1.44068756E-03,  5.45069955E-06,
                      -3.58003062E-09,  7.56196014E-13,  5.04005785E+04,
                      -4.11767085E-01]),
                NASA([1442.35, 5000.00],
                     [ 2.62646565E+00,  3.94764160E-03, -1.49924777E-06,
                       2.54540551E-10, -1.62956925E-14,  5.06917574E+04,
                       6.78383918E+00])),
        transport=gas_transport(geom='nonlinear',
                                diam=3.8,
                                well_depth=144.001))

species(name='CH3OH(25)',
        atoms='C:1 H:4 O:1',
        thermo=(NASA([200.00, 1000.00],
                     [ 5.71540000E+00, -1.52309000E-02,  6.52441000E-05,
                      -7.10807000E-08,  2.61353000E-11, -2.56428000E+04,
                      -1.50410000E+00]),
                NASA([1000.00, 3500.00],
                     [ 1.78971000E+00,  1.40938000E-02, -6.36501000E-06,
                       1.38171000E-09, -1.17060000E-13, -2.53749000E+04,
                       1.45024000E+01])),
        transport=gas_transport(geom='nonlinear',
                                diam=3.626,
                                well_depth=481.802,
                                rot_relax=1.0))

species(name='CH3O(26)',
        atoms='C:1 H:3 O:1',
        thermo=(NASA([298.00, 1000.00],
                     [ 2.10620000E+00,  7.21660000E-03,  5.33847000E-06,
                      -7.37764000E-09,  2.07561000E-12,  9.78601000E+02,
                       1.31522000E+01]),
                NASA([1000.00, 3000.00],
                     [ 3.77080000E+00,  7.87150000E-03, -2.65638000E-06,
                       3.94443000E-10, -2.11262000E-14,  1.27833000E+02,
                       2.92957000E+00])),
        transport=gas_transport(geom='nonlinear',
                                diam=3.69,
                                well_depth=417.002,
                                dipole=1.7,
                                rot_relax=2.0))

species(name='CH2CO(27)',
        atoms='C:2 H:2 O:1',
        thermo=(NASA([200.00, 1000.00],
                     [ 2.13584000E+00,  1.81189000E-02, -1.73947000E-05,
                       9.34398000E-09, -2.01458000E-12, -7.04292000E+03,
                       1.22156000E+01]),
                NASA([1000.00, 3500.00],
                     [ 4.51130000E+00,  9.00360000E-03, -4.16940000E-06,
                       9.23346000E-10, -7.94838000E-14, -7.55105000E+03,
                       6.32247000E-01])),
        transport=gas_transport(geom='nonlinear',
                                diam=3.97,
                                well_depth=436.001,
                                rot_relax=2.0))

species(name='C2H3(28)',
        atoms='C:2 H:3',
        thermo=(NASA([200.00, 1000.00],
                     [ 3.21247000E+00,  1.51479000E-03,  2.59209000E-05,
                      -3.57658000E-08,  1.47151000E-11,  3.48598000E+04,
                       8.51054000E+00]),
                NASA([1000.00, 3500.00],
                     [ 3.01672000E+00,  1.03302000E-02, -4.68082000E-06,
                       1.01763000E-09, -8.62607000E-14,  3.46129000E+04,
                       7.78732000E+00])),
        transport=gas_transport(geom='nonlinear',
                                diam=4.1,
                                well_depth=209.001,
                                rot_relax=1.0))

species(name='C2H4(29)',
        atoms='C:2 H:4',
        thermo=(NASA([200.00, 1000.00],
                     [ 3.95920000E+00, -7.57052000E-03,  5.70990000E-05,
                      -6.91589000E-08,  2.69884000E-11,  5.08978000E+03,
                       4.09733000E+00]),
                NASA([1000.00, 3500.00],
                     [ 2.03611000E+00,  1.46454000E-02, -6.71078000E-06,
                       1.47223000E-09, -1.25706000E-13,  4.93989000E+03,
                       1.03054000E+01])),
        transport=gas_transport(geom='nonlinear',
                                diam=3.971,
                                well_depth=280.801,
                                rot_relax=1.5))

species(name='CH4(30)',
        atoms='C:1 H:4',
        thermo=(NASA([100.00, 1084.14],
                     [ 4.20540357E+00, -5.35543930E-03,  2.51118744E-05,
                      -2.13757274E-08,  5.97501614E-12, -1.01619428E+04,
                      -9.21237248E-01]),
                NASA([1084.14, 5000.00],
                     [ 9.08332935E-01,  1.14539750E-02, -4.57167583E-06,
                       8.29177165E-10, -5.66303015E-14, -9.72000388E+03,
                       1.39927137E+01])),
        transport=gas_transport(geom='nonlinear',
                                diam=3.746,
                                well_depth=141.4,
                                polar=2.6,
                                rot_relax=13.0))

species(name='C2H6(31)',
        atoms='C:2 H:6',
        thermo=(NASA([200.00, 1000.00],
                     [ 4.29142000E+00, -5.50154000E-03,  5.99438000E-05,
                      -7.08466000E-08,  2.68686000E-11, -1.15222000E+04,
                       2.66682000E+00]),
                NASA([1000.00, 3500.00],
                     [ 1.07188000E+00,  2.16853000E-02, -1.00256000E-05,
                       2.21412000E-09, -1.90003000E-13, -1.14264000E+04,
                       1.51156000E+01])),
        transport=gas_transport(geom='nonlinear',
                                diam=4.302,
                                well_depth=252.301,
                                rot_relax=1.5))

species(name='C2H5(32)',
        atoms='C:2 H:5',
        thermo=(NASA([200.00, 1000.00],
                     [ 4.30647000E+00, -4.18659000E-03,  4.97143000E-05,
                      -5.99127000E-08,  2.30509000E-11,  1.28416000E+04,
                       4.70721000E+00]),
                NASA([1000.00, 3500.00],
                     [ 1.95466000E+00,  1.73973000E-02, -7.98207000E-06,
                       1.75218000E-09, -1.49642000E-13,  1.28575000E+04,
                       1.34624000E+01])),
        transport=gas_transport(geom='nonlinear',
                                diam=4.302,
                                well_depth=252.301,
                                rot_relax=1.5))

species(name='CH2OH(33)',
        atoms='C:1 H:3 O:1',
        thermo=(NASA([200.00, 1000.00],
                     [ 3.86389000E+00,  5.59672000E-03,  5.93272000E-06,
                      -1.04532000E-08,  4.36967000E-12, -3.19391000E+03,
                       5.47302000E+00]),
                NASA([1000.00, 3500.00],
                     [ 3.69267000E+00,  8.64577000E-03, -3.75101000E-06,
                       7.87235000E-10, -6.48554000E-14, -3.24251000E+03,
                       5.81043000E+00])),
        transport=gas_transport(geom='nonlinear',
                                diam=3.69,
                                well_depth=417.002,
                                dipole=1.7,
                                rot_relax=2.0))

species(name='CH3CO(34)',
        atoms='C:2 H:3 O:1',
        thermo=(NASA([200.00, 1000.00],
                     [ 4.16343000E+00, -2.32616000E-04,  3.42678000E-05,
                      -4.41052000E-08,  1.72756000E-11, -2.65745000E+03,
                       7.34683000E+00]),
                NASA([1000.00, 6000.00],
                     [ 5.94477000E+00,  7.86672000E-03, -2.88659000E-06,
                       4.72709000E-10, -2.85999000E-14, -3.78731000E+03,
                      -5.01368000E+00])),
        transport=gas_transport(geom='nonlinear',
                                diam=3.97,