units(length='cm', time='s', quantity='mol', act_energy='kcal/mol')

ideal_gas(name='gas',
          elements="H D T C Ci O Oi N Ne Ar He Si S F Cl Br I X",
          species="""N2          Ne          C3H2F4(1)   HO(2)
                     O2(3)       O(4)        H(5)        O(6)
                     H2(7)       Ar(8)       HO2(9)      He(10)
                     OO(11)      CO(12)      CO2(13)     CHO(14)
                     C(15)       CH(16)      CH2(17)     CH3(18)
                     CH2O(19)    C2HO(20)    C2H(21)     C#C(22)
                     C2H2(23)    CO(24)      CH3O(25)    C2H2O(26)
                     C2H3(27)    C2H4(28)    C(29)       CC(30)
                     C2H5(31)    CH3O(32)    C2H3O(33)   C2H3O(34)
                     C2H4O(35)   F(36)       F(37)       CHF(38)
                     CH2F2(39)   FC(F)F(40)  CF2(41)     CF4(42)
                     CF3(43)     CH2F(44)    CHFO(45)    CF3O(46)
                     CF2O(47)    C2HF3(48)   C2H3F(49)   C2H2F2(50)
                     C#CF(51)    C2F4O(52)   C2H2FO(53)  C3HF3(54)
                     C3HF4(55)   C3HF4O(56)  C3H3F4(57)  C3H2F4(58)
                     C3H2F3(59)  C3H2F4(60)  C3H2F4(61)  C6H4F8(62)
                     C3H2F5(63)  C3H2F5(64)  S(65)       C3H2F4(66)
                     C3H2F4(67)  C3HF4(68)   C3H2F4(69)  C3HF3(70)
                     C2H2F3(71)  O2(72)      S(73)       S(74)
                     S(75)       C3H2F4(76)  C3H2F4(77)  C6H3F8(78)
                     C3H3F3(79)  S(80)       S(81)       S(82)
                     C1OO1(83)   C3HF4O(84)  C3H2F4(85)  S(86)
                     CH2FO2(87)  S(88)       C4H2F7(89)  CF3O2(90)
                     C3H2F4(91)  C3HF4(92)   C4H2F7(93)  C3HF3O(94)
                     S(95)       S(96)       CH2O2(97)   CHO2(98)
                     S(99)       S(100)      S(101)      CFO2(102)
                     C2HF3(103)  S(104)      S(105)      CHFO2(106)
                     S(107)      C2HFO(108)  S(109)      S(110)
                     S(111)      S(112)      S(113)      S(114)
                     C2F(115)    C2HF(116)   C2H2O(117)  C3HF3(118)
                     S(119)      S(120)      S(121)      S(122)
                     S(123)      S(124)      S(125)      S(126)
                     S(127)      S(128)      CHFO2(129)  S(130)
                     S(131)      S(132)      S(133)      S(134)
                     S(135)      S(136)      S(137)      S(138)
                     S(139)      S(140)      S(141)      S(142)
                     S(143)      S(144)      S(145)      CF(146)
                     CFO(147)    C2F4(148)   S(149)      S(150)
                     S(151)      S(152)      C2HF4(153)  C2HF2(154)
                     C2HF2(155)  CHF2(156)   S(157)      S(158)
                     CHF2O(159)  CF2O2(160)  CF2O2(161)  CHF2O(162)
                     S(163)      C2HF3(164)  S(165)      S(166)
                     S(167)      S(168)      S(169)      S(170)
                     CF2O2(171)  S(172)      S(173)      S(174)
                     S(175)      S(176)      S(177)      H2CC(178)
                     CH2(179)    CHF(181)    CF2(182)    C2HF4(185)
                     S(237)      S(238)      S(239)      S(264)
                     C3HF2(322)  S(377)      S(465)      S(516)
                     C3HF3(699)  S(705)      C2HF(766)   S(850)
                     S(864)      S(2040)     S(2273)     S(3015)
                     S(3213)     S(8817)     S(16027)""",
          reactions='all',
          transport='Mix',
          initial_state=state(temperature=300.0, pressure=OneAtm))

#-------------------------------------------------------------------------------
# Element data
#-------------------------------------------------------------------------------

element(symbol='Ci', atomic_mass=13.003)
element(symbol='D', atomic_mass=2.014)
element(symbol='Oi', atomic_mass=17.999)
element(symbol='T', atomic_mass=3.016)
element(symbol='X', atomic_mass=195.083)
#-------------------------------------------------------------------------------
# Species data
#-------------------------------------------------------------------------------

species(name='N2',
        atoms='N:2',
        thermo=(NASA([200.00, 1000.00],
                     [ 3.53101000E+00, -1.23661000E-04, -5.02999000E-07,
                       2.43531000E-09, -1.40881000E-12, -1.04698000E+03,
                       2.96747000E+00]),
                NASA([1000.00, 6000.00],
                     [ 2.95258000E+00,  1.39690000E-03, -4.92632000E-07,
                       7.86010000E-11, -4.60755000E-15, -9.23949000E+02,
                       5.87189000E+00])),
        transport=gas_transport(geom='linear',
                                diam=3.621,
                                well_depth=97.53,
                                polar=1.76,
                                rot_relax=4.0))

species(name='Ne',
        atoms='Ne:1',
        thermo=(NASA([200.00, 1000.00],
                     [ 2.50000000E+00,  0.00000000E+00,  0.00000000E+00,
                       0.00000000E+00,  0.00000000E+00, -7.45375000E+02,
                       3.35532000E+00]),
                NASA([1000.00, 6000.00],
                     [ 2.50000000E+00,  0.00000000E+00,  0.00000000E+00,
                       0.00000000E+00,  0.00000000E+00, -7.45375000E+02,
                       3.35532000E+00])),
        transport=gas_transport(geom='atom',
                                diam=3.758,
                                well_depth=148.6))

species(name='C3H2F4(1)',
        atoms='C:3 F:4 H:2',
        thermo=(NASA([200.00, 1000.00],
                     [ 1.00153000E+00,  4.98008000E-02, -4.61878000E-05,
                       1.64792000E-08, -3.13156000E-13, -9.99487000E+04,
                       2.07747000E+01]),
                NASA([1000.00, 6000.00],
                     [ 1.43110000E+01,  9.44785000E-03, -3.52268000E-06,
                       5.79392000E-10, -3.50621000E-14, -1.03384000E+05,
                      -4.69130000E+01])),
        transport=gas_transport(geom='nonlinear',
                                diam=4.9,
                                well_depth=371.0))

species(name='HO(2)',
        atoms='H:1 O:1',
        thermo=(NASA([100.00, 1145.76],
                     [ 3.51456840E+00,  2.92733461E-05, -5.32150328E-07,
                       1.01947489E-09, -3.85939283E-13,  3.41425418E+03,
                       2.10434754E+00]),
                NASA([1145.76, 5000.00],
                     [ 3.07193719E+00,  6.04019927E-04, -1.39806418E-08,
                      -2.13440701E-11,  2.48061276E-15,  3.57938795E+03,
                       4.57801500E+00])),
        transport=gas_transport(geom='linear',
                                diam=2.75,
                                well_depth=80.0))

species(name='O2(3)',
        atoms='O:2',
        thermo=(NASA([100.00, 1074.55],
                     [ 3.53732243E+00, -1.21571655E-03,  5.31620279E-06,
                      -4.89446465E-09,  1.45846271E-12, -1.03858849E+03,
                       4.68368180E+00]),
                NASA([1074.55, 5000.00],
                     [ 3.15382077E+00,  1.67804376E-03, -7.69974269E-07,
                       1.51275470E-10, -1.08782420E-14, -1.04081727E+03,
                       6.16755852E+00])),
        transport=gas_transport(geom='linear',
                                diam=3.458,
                                well_depth=107.4,
                                polar=1.6,
                                rot_relax=3.8))

species(name='O(4)',
        atoms='H:2 O:1',
        thermo=(NASA([100.00, 1130.24],
                     [ 4.05763583E+00, -7.87935820E-04,  2.90877481E-06,
                      -1.47518847E-09,  2.12842891E-13, -3.02815866E+04,
                      -3.11364048E-01]),
                NASA([1130.24, 5000.00],
                     [ 2.84325052E+00,  2.75108536E-03, -7.81031435E-07,
                       1.07243628E-10, -5.79392151E-15, -2.99586128E+04,
                       5.91041953E+00])),
        transport=gas_transport(geom='nonlinear',
                                diam=2.605,
                                well_depth=572.402,
                                dipole=1.844,
                                rot_relax=4.0))

species(name='H(5)',
        atoms='H:1',
        thermo=(NASA([100.00, 4230.24],
                     [ 2.50000000E+00,  9.05028667E-14, -1.20494648E-16,
                       5.23431737E-20, -6.99813850E-24,  2.54742178E+04,
                      -4.44972896E-01]),
                NASA([4230.24, 5000.00],
                     [ 2.49999605E+00,  3.58763060E-09, -1.22015473E-12,
                       1.84118067E-16, -1.04000002E-20,  2.54742212E+04,
                      -4.44947992E-01])),
        transport=gas_transport(geom='atom',
                                diam=2.05,
                                well_depth=145.0))

species(name='O(6)',
        atoms='O:1',
        thermo=(NASA([100.00, 4230.24],
                     [ 2.50000000E+00,  9.05028667E-14, -1.20494648E-16,
                       5.23431737E-20, -6.99813850E-24,  2.92302441E+04,
                       5.12616427E+00]),
                NASA([4230.24, 5000.00],
                     [ 2.49999605E+00,  3.58763060E-09, -1.22015473E-12,
                       1.84118067E-16, -1.04000002E-20,  2.92302476E+04,
                       5.12618918E+00])),
        transport=gas_transport(geom='atom',
                                diam=2.75,
                                well_depth=80.0))

species(name='H2(7)',
        atoms='H:2',
        thermo=(NASA([100.00, 1959.08],
                     [ 3.43536431E+00,  2.12708634E-04, -2.78621143E-07,
                       3.40264107E-10, -7.76024422E-14, -1.03135985E+03,
                      -3.90841808E+00]),
                NASA([1959.08, 5000.00],
                     [ 2.78814513E+00,  5.87667842E-04,  1.58997823E-07,
                      -5.52713751E-11,  4.34292562E-15, -5.96132053E+02,
                       1.12855390E-01])),
        transport=gas_transport(geom='linear',
                                diam=2.92,
                                well_depth=38.0,
                                polar=0.79,
                                rot_relax=280.0))

species(name='Ar(8)',
        atoms='Ar:1',
        thermo=(NASA([200.00, 1000.00],
                     [ 2.50000000E+00,  0.00000000E+00,  0.00000000E+00,
                       0.00000000E+00,  0.00000000E+00, -7.45375000E+02,
                       4.37967000E+00]),
                NASA([1000.00, 6000.00],
                     [ 2.50000000E+00,  0.00000000E+00,  0.00000000E+00,
                       0.00000000E+00,  0.00000000E+00, -7.45375000E+02,
                       4.37967000E+00])),
        transport=gas_transport(geom='atom',
                                diam=3.33,
                                well_depth=136.501))

species(name='HO2(9)',
        atoms='H:1 O:2',
        thermo=(NASA([200.00, 1000.00],
                     [ 4.30180000E+00, -4.74912000E-03,  2.11583000E-05,
                      -2.42764000E-08,  9.29225000E-12,  2.94808000E+02,
                       3.71666000E+00]),
                NASA([1000.00, 3500.00],
                     [ 4.01721000E+00,  2.23982000E-03, -6.33658000E-07,
                       1.14246000E-10, -1.07909000E-14,  1.11857000E+02,
                       3.78510000E+00])),
        transport=gas_transport(geom='nonlinear',
                                diam=3.458,
                                well_depth=107.4,
                                rot_relax=1.0))

species(name='He(10)',
        atoms='He:1',
        thermo=(NASA([200.00, 1000.00],
                     [ 2.50000000E+00,  0.00000000E+00,  0.00000000E+00,
                       0.00000000E+00,  0.00000000E+00, -7.45375000E+02,
                       9.28724000E-01]),
                NASA([1000.00, 6000.00],
                     [ 2.50000000E+00,  0.00000000E+00,  0.00000000E+00,
                       0.00000000E+00,  0.00000000E+00, -7.45375000E+02,
                       9.28724000E-01])),
        transport=gas_transport(geom='atom',
                                diam=2.576,
                                well_depth=10.2))

species(name='OO(11)',
        atoms='H:2 O:2',
        thermo=(NASA([200.00, 1000.00],
                     [ 4.27611000E+00, -5.42822000E-04,  1.67336000E-05,
                      -2.15771000E-08,  8.62454000E-12, -1.77026000E+04,
                       3.43505000E+00]),
                NASA([1000.00, 3500.00],
                     [ 4.16500000E+00,  4.90832000E-03, -1.90139000E-06,
                       3.71186000E-10, -2.87908000E-14, -1.78618000E+04,
                       2.91616000E+00])),
        transport=gas_transport(geom='nonlinear',
                                diam=3.458,
                                well_depth=107.4,
                                rot_relax=3.8))

species(name='CO(12)',
        atoms='C:1 O:1',
        thermo=(NASA([100.00, 1571.64],
                     [ 3.56837990E+00, -8.52124792E-04,  2.48917582E-06,
                      -1.56330849E-09,  3.13594738E-13, -1.42842549E+04,
                       3.57912211E+00]),
                NASA([1571.64, 5000.00],
                     [ 2.91306747E+00,  1.64657731E-03, -6.88614547E-07,
                       1.21037299E-10, -7.84017568E-15, -1.41808850E+04,
                       6.71045295E+00])),
        transport=gas_transport(geom='linear',
                                diam=3.65,
                                well_depth=98.1,
                                polar=1.95,
                                rot_relax=1.8))

species(name='CO2(13)',
        atoms='C:1 O:2',
        thermo=(NASA([200.00, 1000.00],
                     [ 2.35677000E+00,  8.98460000E-03, -7.12356000E-06,
                       2.45919000E-09, -1.43700000E-13, -4.83720000E+04,
                       9.90105000E+00]),
                NASA([1000.00, 3500.00],
                     [ 3.85746000E+00,  4.41437000E-03, -2.21481000E-06,
                       5.23490000E-10, -4.72084000E-14, -4.87592000E+04,
                       2.27164000E+00])),
        transport=gas_transport(geom='linear',
                                diam=3.763,
                                well_depth=244.001,
                                polar=2.65,
                                rot_relax=2.1))

species(name='CHO(14)',
        atoms='C:1 H:1 O:1',
        thermo=(NASA([200.00, 1000.00],
                     [ 4.22119000E+00, -3.24393000E-03,  1.37799000E-05,
                      -1.33144000E-08,  4.33769000E-12,  3.83956000E+03,
                       3.39437000E+00]),
                NASA([1000.00, 3500.00],
                     [ 2.77217000E+00,  4.95696000E-03, -2.48446000E-06,
                       5.89162000E-10, -5.33509000E-14,  4.01192000E+03,
                       9.79834000E+00])),
        transport=gas_transport(geom='nonlinear',
                                diam=3.59,
                                well_depth=498.002))

species(name='C(15)',
        atoms='C:1',
        thermo=(NASA([100.00, 4230.24],
                     [ 2.50000000E+00,  9.05028667E-14, -1.20494648E-16,
                       5.23431737E-20, -6.99813850E-24,  8.54745247E+04,
                       3.65978421E+00]),
                NASA([4230.24, 5000.00],
                     [ 2.49999605E+00,  3.58763060E-09, -1.22015473E-12,
                       1.84118067E-16, -1.04000002E-20,  8.54745282E+04,
                       3.65980911E+00])),
        transport=gas_transport(geom='atom',
                                diam=3.298,
                                well_depth=71.4))

species(name='CH(16)',
        atoms='C:1 H:1',
        thermo=(NASA([200.00, 1000.00],
                     [ 3.48982000E+00,  3.23836000E-04, -1.68899000E-06,
                       3.16217000E-09, -1.40609000E-12,  7.07973000E+04,
                       2.08401000E+00]),
                NASA([1000.00, 3500.00],
                     [ 2.87846000E+00,  9.70914000E-04,  1.44446000E-07,
                      -1.30688000E-10,  1.76079000E-14,  7.10124000E+04,
                       5.48498000E+00])),
        transport=gas_transport(geom='linear',
                                diam=2.75,
                                well_depth=80.0))

species(name='CH2(17)',
        atoms='C:1 H:2',
        thermo=(NASA([100.00, 1104.65],
                     [ 4.01192375E+00, -1.54977502E-04,  3.26297499E-06,
                      -2.40421511E-09,  5.69495776E-13,  4.58676802E+04,
                       5.33200966E-01]),
                NASA([1104.65, 5000.00],
                     [ 3.14983330E+00,  2.96674362E-03, -9.76056467E-07,
                       1.54115432E-10, -9.50339412E-15,  4.60581392E+04,
                       4.77807981E+00])),
        transport=gas_transport(geom='nonlinear',
                                diam=3.8,
                                well_depth=144.001))

species(name='CH3(18)',
        atoms='C:1 H:3',
        thermo=(NASA([200.00, 1000.00],
                     [ 3.67359000E+00,  2.01095000E-03,  5.73022000E-06,
                      -6.87117000E-09,  2.54386000E-12,  1.64450000E+04,
                       1.60456000E+00]),
                NASA([1000.00, 3500.00],
                     [ 2.28572000E+00,  7.23990000E-03, -2.98714000E-06,
                       5.95685000E-10, -4.67154000E-14,  1.67756000E+04,
                       8.48007000E+00])),
        transport=gas_transport(geom='nonlinear',
                                diam=3.8,
                                well_depth=144.001))

species(name='CH2O(19)',
        atoms='C:1 H:2 O:1',
        thermo=(NASA([200.00, 1000.00],
                     [ 4.79372000E+00, -9.90833000E-03,  3.73220000E-05,
                      -3.79285000E-08,  1.31773000E-11, -1.43090000E+04,
                       6.02813000E-01]),
                NASA([1000.00, 3500.00],
                     [ 1.76069000E+00,  9.20000000E-03, -4.42259000E-06,
                       1.00641000E-09, -8.83856000E-14, -1.39958000E+04,
                       1.36563000E+01])),
        transport=gas_transport(geom='nonlinear',
                                diam=3.59,
                                well_depth=498.002,
                                rot_relax=2.0))

species(name='C2HO(20)',
        atoms='C:2 H:1 O:1',
        thermo=(NASA([298.00, 1000.00],
                     [ 2.25172000E+00,  1.76550000E-02, -2.37291000E-05,
                       1.72758000E-08, -5.06648000E-12,  2.00594000E+04,
                       1.24904000E+01]),
                NASA([1000.00, 4000.00],
                     [ 5.62821000E+00,  4.08534000E-03, -1.59345000E-06,
                       2.86261000E-10, -1.94078000E-14,  1.93272000E+04,
                      -3.93026000E+00])),
        transport=gas_transport(geom='nonlinear',
                                diam=2.5,
                                well_depth=150.001,
                                rot_relax=1.0))

species(name='C2H(21)',
        atoms='C:2 H:1',
        thermo=(NASA([200.00, 1000.00],
                     [ 2.88966000E+00,  1.34100000E-02, -2.84770000E-05,
                       2.94791000E-08, -1.09332000E-11,  6.68394000E+04,
                       6.22296000E+00]),
                NASA([1000.00, 3500.00],
                     [ 3.16781000E+00,  4.75222000E-03, -1.83787000E-06,
                       3.04190000E-10, -1.77233000E-14,  6.71211000E+04,
                       6.63589000E+00])),
        transport=gas_transport(geom='linear',
                                diam=4.1,
                                well_depth=209.001,
                                rot_relax=2.5))

species(name='C#C(22)',
        atoms='C:2 H:2',
        thermo=(NASA([200.00, 1000.00],
                     [ 8.08681000E-01,  2.33616000E-02, -3.55172000E-05,
                       2.80152000E-08, -8.50073000E-12,  2.64290000E+04,
                       1.39397000E+01]),
                NASA([1000.00, 3500.00],
                     [ 4.14757000E+00,  5.96167000E-03, -2.37295000E-06,
                       4.67412000E-10, -3.61235000E-14,  2.59360000E+04,
                      -1.23028000E+00])),
        transport=gas_transport(geom='linear',
                                diam=4.1,
                                well_depth=209.001,
                                rot_relax=2.5))

species(name='C2H2(23)',
        atoms='C:2 H:2',
        thermo=(NASA([100.00, 953.67],
                     [ 3.94830101E+00, -1.81649338E-03,  2.07123594E-05,
                      -2.36688647E-08,  8.45451600E-12,  7.22068399E+04,
                       5.31550493E+00]),
                NASA([953.67, 5000.00],
                     [ 4.20274854E+00,  4.73418134E-03, -1.57301815E-06,
                       2.85898312E-10, -2.08637306E-14,  7.18118894E+04,
                       2.28377158E+00])),
        transport=gas_transport(geom='nonlinear',
                                diam=4.485,
                                well_depth=298.358))

species(name='CO(24)',
        atoms='C:1 H:4 O:1',
        thermo=(NASA([200.00, 1000.00],
                     [ 5.71540000E+00, -1.52309000E-02,  6.52441000E-05,
                      -7.10807000E-08,  2.61353000E-11, -2.56428000E+04,
                      -1.50410000E+00]),
                NASA([1000.00, 3500.00],
                     [ 1.78971000E+00,  1.40938000E-02, -6.36501000E-06,
                       1.38171000E-09, -1.17060000E-13, -2.53749000E+04,
                       1.45024000E+01])),
        transport=gas_transport(geom='nonlinear',
                                diam=3.626,
                                well_depth=481.802,
                                rot_relax=1.0))

species(name='CH3O(25)',
        atoms='C:1 H:3 O:1',
        thermo=(NASA([298.00, 1000.00],
                     [ 2.10620000E+00,  7.21660000E-03,  5.33847000E-06,
                      -7.37764000E-09,  2.07561000E-12,  9.78601000E+02,
                       1.31522000E+01]),
                NASA([1000.00, 3000.00],
                     [ 3.77080000E+00,  7.87150000E-03, -2.65638000E-06,
                       3.94443000E-10, -2.11262000E-14,  1.27833000E+02,
                       2.92957000E+00])),
        transport=gas_transport(geom='nonlinear',
                                diam=3.69,
                                well_depth=417.002,
                                dipole=1.7,
                                rot_relax=2.0))

species(name='C2H2O(26)',
        atoms='C:2 H:2 O:1',
        thermo=(NASA([200.00, 1000.00],
                     [ 2.13584000E+00,  1.81189000E-02, -1.73947000E-05,
                       9.34398000E-09, -2.01458000E-12, -7.04292000E+03,
                       1.22156000E+01]),
                NASA([1000.00, 3500.00],
                     [ 4.51130000E+00,  9.00360000E-03, -4.16940000E-06,
                       9.23346000E-10, -7.94838000E-14, -7.55105000E+03,
                       6.32247000E-01])),
        transport=gas_transport(geom='nonlinear',
                                diam=3.97,
                                well_depth=436.001,
                                rot_relax=2.0))

species(name='C2H3(27)',
        atoms='C:2 H:3',
        thermo=(NASA([200.00, 1000.00],
                     [ 3.21247000E+00,  1.51479000E-03,  2.59209000E-05,
                      -3.57658000E-08,  1.47151000E-11,  3.48598000E+04,
                       8.51054000E+00]),
                NASA([1000.00, 3500.00],
                     [ 3.01672000E+00,  1.03302000E-02, -4.68082000E-06,
                       1.01763000E-09, -8.62607000E-14,  3.46129000E+04,
                       7.78732000E+00])),
        transport=gas_transport(geom='nonlinear',
                                diam=4.1,
                                well_depth=209.001,
                                rot_relax=1.0))

species(name='C2H4(28)',
        atoms='C:2 H:4',
        thermo=(NASA([200.00, 1000.00],
                     [ 3.95920000E+00, -7.57052000E-03,  5.70990000E-05,
                      -6.91589000E-08,  2.69884000E-11,  5.08978000E+03,
                       4.09733000E+00]),
                NASA([1000.00, 3500.00],
                     [ 2.03611000E+00,  1.46454000E-02, -6.71078000E-06,
                       1.47223000E-09, -1.25706000E-13,  4.93989000E+03,
                       1.03054000E+01])),
        transport=gas_transport(geom='nonlinear',
                                diam=3.971,
                                well_depth=280.801,
                                rot_relax=1.5))

species(name='C(29)',
        atoms='C:1 H:4',
        thermo=(NASA([100.00, 1084.11],
                     [ 4.20542250E+00, -5.35565721E-03,  2.51126079E-05,
                      -2.13766307E-08,  5.97537828E-12, -1.01619436E+04,
                      -9.21305438E-01]),
                NASA([1084.11, 5000.00],
                     [ 9.08223900E-01,  1.14541547E-02, -4.57177713E-06,
                       8.29200696E-10, -5.66322286E-14, -9.71995611E+03,
                       1.39933313E+01])),
        transport=gas_transport(geom='nonlinear',
                                diam=3.746,
                                well_depth=141.4,
                                polar=2.6,
                                rot_relax=13.0))

species(name='CC(30)',
        atoms='C:2 H:6',
        thermo=(NASA([200.00, 1000.00],
                     [ 4.29142000E+00, -5.50154000E-03,  5.99438000E-05,
                      -7.08466000E-08,  2.68686000E-11, -1.15222000E+04,
                       2.66682000E+00]),
                NASA([1000.00, 3500.00],
                     [ 1.07188000E+00,  2.16853000E-02, -1.00256000E-05,
                       2.21412000E-09, -1.90003000E-13, -1.14264000E+04,
                       1.51156000E+01])),
        transport=gas_transport(geom='nonlinear',
                                diam=4.302,
                                well_depth=252.301,
                                rot_relax=1.5))

species(name='C2H5(31)',
        atoms='C:2 H:5',
        thermo=(NASA([200.00, 1000.00],
                     [ 4.30647000E+00, -4.18659000E-03,  4.97143000E-05,
                      -5.99127000E-08,  2.30509000E-11,  1.28416000E+04,
                       4.70721000E+00]),
                NASA([1000.00, 3500.00],
                     [ 1.95466000E+00,  1.73973000E-02, -7.98207000E-06,
                       1.75218000E-09, -1.49642000E-13,  1.28575000E+04,
                       1.34624000E+01])),
        transport=gas_transport(geom='nonlinear',
                                diam=4.302,
                                well_depth=252.301,
                                rot_relax=1.5))

species(name='CH3O(32)',
        atoms='C:1 H:3 O:1',
        thermo=(NASA([200.00, 1000.00],
                     [ 3.86389000E+00,  5.59672000E-03,  5.93272000E-06,
                      -1.04532000E-08,  4.36967000E-12, -3.19391000E+03,
                       5.47302000E+00]),
                NASA([1000.00, 3500.00],
                     [ 3.69267000E+00,  8.64577000E-03, -3.75101000E-06,
                       7.87235000E-10, -6.48554000E-14, -3.24251000E+03,
                       5.81043000E+00])),
        transport=gas_transport(geom='nonlinear',
                                diam=3.69,
                                well_depth=417.002,
                                dipole=1.7,
                                rot_relax=2.0))

species(name='C2H3O(33)',
        atoms='C:2 H:3 O:1',
        thermo=(NASA([200.00, 1000.00],
                     [ 4.16343000E+00, -2.32616000E-04,  3.42678000E-05,
                      -4.41052000E-08,  1.72756000E-11, -2.65745000E+03,
                       7.34683000E+00]),
                NASA([1000.00, 6000.00],
                     [ 5.94477000E+00,  7.86672000E-03, -2.88659000E-06,
                       4.72709000E-10, -2.85999000E-14, -3.78731000E+03,
                      -5.01368000E+00])),
        transport=gas_transport(geom='nonlinear',
                                diam=3.97,
                                well_depth=436.001,
                                rot_relax=2.0))

species(name='C2H3O(34)',
        atoms='C:2 H:3 O:1',
        thermo=(NASA([298.00, 1000.00],
                     [ 3.40906000E+00,  1.07386000E-02,  1.89149000E-06,
                      -7.15858000E-09,  2.86738000E-12,  1.52148000E+03,
                       9.55829000E+00]),
                NASA([1000.00, 5000.00],
                     [ 5.97567000E+00,  8.13059000E-03, -2.74362000E-06,
                       4.07030000E-10, -2.17602000E-14,  4.90322000E+02,
                      -5.04525000E+00])),
        transport=gas_transport(geom='nonlinear',
                                diam=3.97,
                                well_depth=436.001,
                                rot_relax=2.0))

species(name='C2H4O(35)',
        atoms='C:2 H:4 O:1',
        thermo=(NASA([200.00, 1000.00],
                     [ 4.72946000E+00, -3.19329000E-03,  4.75349000E-05,
                      -5.74586000E-08,  2.19311000E-11, -2.15729000E+04,
                       4.10302000E+00]),
                NASA([1000.00, 6000.00],
                     [ 5.40411000E+00,  1.17231000E-02, -4.22631000E-06,
                       6.83725000E-10, -4.09849000E-14, -2.25931000E+04,
                      -3.48079000E+00])),
        transport=gas_transport(geom='nonlinear',
                                diam=3.97,
                                well_depth=436.001,
                                rot_relax=2.0))

species(name='F(36)',
        atoms='F:1',
        thermo=(NASA([298.00, 1400.00],
                     [ 2.90371000E+00, -6.35296000E-04,  2.64735000E-07,
                       7.69063000E-11, -5.45254000E-14,  8.67227000E+03,
                       2.70828000E+00]),