units(length='cm', time='s', quantity='mol', act_energy='kcal/mol')

ideal_gas(name='gas',
          elements="H D T C Ci O Oi N Ne Ar He Si S F Cl Br I X",
          species="""Ar                N2                Ne
                     CH2F2(1)          C3H8(2)           O2(3)
                     H2O(4)            H(5)              O(6)
                     OH(7)             H2(8)             He(9)
                     HO2(10)           H2O2(11)          C2H4(12)
                     CH3(13)           HCO(14)           CH3CO(15)
                     CH2CHO(16)        C2H3(17)          CH2(18)
                     CH2O(19)          CH2CO(20)         CH4(21)
                     CO(22)            C2H2(23)          C2H5(24)
                     CHF2(25)          IC3H7(26)         NC3H7(27)
                     C3H6(28)          IC3H7O2(29)       C2H5O2(30)
                     CH3O2(31)         [O]OC(F)F(32)     NC3H7O2(33)
                     CF2O(34)          C[C]C-2(35)       HF(36)
                     CHF(37)           FC1OO1(38)        [O]C([O])F(39)
                     CFO2(40)          CO2(41)           C2H6(42)
                     F(43)             [CH]C(44)         C3H6OOH1-3(45)
                     FC(F)C(F)F(46)    [CH2]C[CH2](47)   CH3O(48)
                     CHFO(49)          O2(50)            C3H5-A(51)
                     C3H5O2(52)        [CH]1COOC1(53)    C4H8-1(54)
                     C[C]CC(55)        C4H8-2(56)        CHF2-CF2(57)
                     CF2(58)           C2HF4O2(59)       C3H4-A(60)
                     [CH2]CC(F)F(61)   C6H101-5(62)      [CH2]C[CH]C(63)
                     C1OO1(64)         [O]C[O](65)       HOCHO(66)
                     C3H4-P(67)        C3H4(68)          OCHO(69)
                     CH2(S)(70)        C3H5O(71)         C2H3CHO(72)
                     C3H3(73)          CHF2-CH2(74)      CH2CF2(75)
                     FC1(F)OO1(76)     CF2O2(77)         CH3CHCO(78)
                     CH3-CF2(79)       CHFCF2(80)        C[CH]CC(F)F(81)
                     C4H71-3(82)       C2H4O1-2(102)     C2H3O1-2(103)
                     C2H3CO(124)       C4H71-4(227)      C4H71-1(228)
                     C4H6(230)         C4H612(243)       CHF3(717)
                     C2HF(728)         C2F2(730)         CHFCF[Z](739)
                     CF2CH(740)        [O]O[CH]F(830)    C4H6(862)
                     C4H6(869)         F[C]C(F)F(1654)   C3H4F2(1805)
                     C2HFO(3726)       C2HF2O(5939)      C2HF2O(5942)
                     C2HF2O(5943)      C3H4O(6603)       FC1(F)CO1(11123)
                     C2H3F2O2(11717)   C2H3F2O2(11720)   C4H6(16139)
                     C4H7O2(16141)     C4H7O2(18157)     C3F4(20577)
                     C3F4(21311)       C2HF(22431)       F[C]1OC1F(22653)
                     C2HF2O3(22686)    C4H7(25407)""",
          reactions='all',
          transport='Mix',
          initial_state=state(temperature=300.0, pressure=OneAtm))

#-------------------------------------------------------------------------------
# Element data
#-------------------------------------------------------------------------------

element(symbol='Ci', atomic_mass=13.003)
element(symbol='D', atomic_mass=2.014)
element(symbol='Oi', atomic_mass=17.999)
element(symbol='T', atomic_mass=3.016)
element(symbol='X', atomic_mass=195.083)
#-------------------------------------------------------------------------------
# Species data
#-------------------------------------------------------------------------------

species(name='Ar',
        atoms='Ar:1',
        thermo=(NASA([100.00, 3959.16],
                     [ 2.50000000E+00,  1.49297701E-14, -2.05327212E-17,
                       9.23927165E-21, -1.28063600E-24, -7.45000000E+02,
                       4.36630363E+00]),
                NASA([3959.16, 5000.00],
                     [ 2.49999988E+00,  1.19009278E-10, -4.23987408E-14,
                       6.68965199E-18, -3.94352207E-22, -7.44999896E+02,
                       4.36630442E+00])),
        transport=gas_transport(geom='atom',
                                diam=3.33,
                                well_depth=136.501))

species(name='N2',
        atoms='N:2',
        thermo=(NASA([100.00, 1817.03],
                     [ 3.61262615E+00, -1.00893298E-03,  2.49899172E-06,
                      -1.43376184E-09,  2.58637197E-13, -1.05110290E+03,
                       2.65270253E+00]),
                NASA([1817.03, 5000.00],
                     [ 2.97587978E+00,  1.64143979E-03, -7.19736035E-07,
                       1.25380568E-10, -7.91547908E-15, -1.02583109E+03,
                       5.53769763E+00])),
        transport=gas_transport(geom='linear',
                                diam=3.621,
                                well_depth=97.53,
                                polar=1.76,
                                rot_relax=4.0))

species(name='Ne',
        atoms='Ne:1',
        thermo=(NASA([200.00, 1000.00],
                     [ 2.50000000E+00,  0.00000000E+00,  0.00000000E+00,
                       0.00000000E+00,  0.00000000E+00, -7.45375000E+02,
                       3.35532000E+00]),
                NASA([1000.00, 6000.00],
                     [ 2.50000000E+00,  0.00000000E+00,  0.00000000E+00,
                       0.00000000E+00,  0.00000000E+00, -7.45375000E+02,
                       3.35532000E+00])),
        transport=gas_transport(geom='atom',
                                diam=3.758,
                                well_depth=148.6))

species(name='CH2F2(1)',
        atoms='C:1 F:2 H:2',
        thermo=(NASA([298.00, 1100.00],
                     [ 1.73901000E+00,  1.19379000E-02, -2.69321000E-07,
                      -5.51894000E-09,  2.18135000E-12, -5.54397000E+04,
                       1.62342000E+01]),
                NASA([1100.00, 3000.00],
                     [ 4.55850000E+00,  8.31979000E-03, -3.37157000E-06,
                       6.18797000E-10, -4.19515000E-14, -5.65062000E+04,
                       4.36637000E-01])),
        transport=gas_transport(geom='nonlinear',
                                diam=4.123,
                                well_depth=262.0,
                                dipole=1.8))

species(name='C3H8(2)',
        atoms='C:3 H:8',
        thermo=(NASA([200.00, 1000.00],
                     [ 4.21093000E+00,  1.70887000E-03,  7.06530000E-05,
                      -9.20061000E-08,  3.64618000E-11, -1.43811000E+04,
                       5.61004000E+00]),
                NASA([1000.00, 6000.00],
                     [ 6.66920000E+00,  2.06109000E-02, -7.36512000E-06,
                       1.18434000E-09, -7.06915000E-14, -1.62754000E+04,
                      -1.31943000E+01])),
        transport=gas_transport(geom='nonlinear',
                                diam=4.982,
                                well_depth=266.801,
                                rot_relax=1.0))

species(name='O2(3)',
        atoms='O:2',
        thermo=(NASA([100.00, 1087.72],
                     [ 3.53763486E+00, -1.22825212E-03,  5.36750907E-06,
                      -4.93118635E-09,  1.45951327E-12, -1.03799017E+03,
                       4.67180530E+00]),
                NASA([1087.72, 5000.00],
                     [ 3.16428445E+00,  1.69451710E-03, -8.00324371E-07,
                       1.59027425E-10, -1.14888869E-14, -1.04845076E+03,
                       6.08296109E+00])),
        transport=gas_transport(geom='linear',
                                diam=3.458,
                                well_depth=107.4,
                                polar=1.6,
                                rot_relax=3.8))

species(name='H2O(4)',
        atoms='H:2 O:1',
        thermo=(NASA([100.00, 1281.43],
                     [ 3.99882030E+00, -5.54833809E-04,  2.76774923E-06,
                      -1.55665581E-09,  3.02332129E-13, -3.02745569E+04,
                      -3.08953284E-02]),
                NASA([1281.43, 5000.00],
                     [ 3.19560595E+00,  1.95239617E-03, -1.67115953E-07,
                      -2.97943896E-11,  4.45143706E-15, -3.00687032E+04,
                       4.04333240E+00])),
        transport=gas_transport(geom='nonlinear',
                                diam=2.605,
                                well_depth=572.402,
                                dipole=1.844,
                                rot_relax=4.0))

species(name='H(5)',
        atoms='H:1',
        thermo=(NASA([100.00, 3959.16],
                     [ 2.50000000E+00,  1.49297701E-14, -2.05327212E-17,
                       9.23927165E-21, -1.28063600E-24,  2.54727081E+04,
                      -4.59566246E-01]),
                NASA([3959.16, 5000.00],
                     [ 2.49999988E+00,  1.19009278E-10, -4.23987408E-14,
                       6.68965199E-18, -3.94352207E-22,  2.54727082E+04,
                      -4.59565465E-01])),
        transport=gas_transport(geom='atom',
                                diam=2.05,
                                well_depth=145.0))

species(name='O(6)',
        atoms='O:1',
        thermo=(NASA([100.00, 3959.16],
                     [ 2.50000000E+00,  1.49297701E-14, -2.05327212E-17,
                       9.23927165E-21, -1.28063600E-24,  2.92267216E+04,
                       5.11106770E+00]),
                NASA([3959.16, 5000.00],
                     [ 2.49999988E+00,  1.19009278E-10, -4.23987408E-14,
                       6.68965199E-18, -3.94352207E-22,  2.92267217E+04,
                       5.11106848E+00])),
        transport=gas_transport(geom='atom',
                                diam=2.75,
                                well_depth=80.0))

species(name='OH(7)',
        atoms='H:1 O:1',
        thermo=(NASA([100.00, 1005.25],
                     [ 3.48579711E+00,  1.33395199E-03, -4.70037599E-06,
                       5.64371805E-09, -2.06314509E-12,  3.41195697E+03,
                       1.99787220E+00]),
                NASA([1005.25, 5000.00],
                     [ 2.88224713E+00,  1.03869705E-03, -2.35657177E-07,
                       1.40241976E-11,  6.34477261E-16,  3.66956236E+03,
                       5.59056302E+00])),
        transport=gas_transport(geom='linear',
                                diam=2.75,
                                well_depth=80.0))

species(name='H2(8)',
        atoms='H:2',
        thermo=(NASA([100.00, 1962.87],
                     [ 3.42253800E+00,  2.86644221E-04, -4.14658242E-07,
                       4.27538230E-10, -9.38094749E-14, -1.02978494E+03,
                      -3.86364982E+00]),
                NASA([1962.87, 5000.00],
                     [ 2.74212094E+00,  5.79625993E-04,  1.97162291E-07,
                      -6.41013373E-11,  4.95944014E-15, -5.51998430E+02,
                       4.14492542E-01])),
        transport=gas_transport(geom='linear',
                                diam=2.92,
                                well_depth=38.0,
                                polar=0.79,
                                rot_relax=280.0))

species(name='He(9)',
        atoms='He:1',
        thermo=(NASA([100.00, 3959.16],
                     [ 2.50000000E+00,  1.49297701E-14, -2.05327212E-17,
                       9.23927165E-21, -1.28063600E-24, -7.45000000E+02,
                       9.14221530E-01]),
                NASA([3959.16, 5000.00],
                     [ 2.49999988E+00,  1.19009278E-10, -4.23987408E-14,
                       6.68965199E-18, -3.94352207E-22, -7.44999896E+02,
                       9.14222311E-01])),
        transport=gas_transport(geom='atom',
                                diam=2.576,
                                well_depth=10.2))

species(name='HO2(10)',
        atoms='H:1 O:2',
        thermo=(NASA([100.00, 923.91],
                     [ 4.02956496E+00, -2.63991334E-03,  1.52232585E-05,
                      -1.71674586E-08,  6.26752951E-12,  3.22677065E+02,
                       4.84426203E+00]),
                NASA([923.91, 5000.00],
                     [ 4.15131771E+00,  1.91148602E-03, -4.11289342E-07,
                       6.34993250E-11, -4.86415216E-15,  8.34267760E+01,
                       3.09349028E+00])),
        transport=gas_transport(geom='nonlinear',
                                diam=3.458,
                                well_depth=107.4,
                                rot_relax=1.0))

species(name='H2O2(11)',
        atoms='H:2 O:2',
        thermo=(NASA([100.00, 923.27],
                     [ 3.72866882E+00,  4.13379072E-03,  5.67491222E-06,
                      -1.01864804E-08,  4.28608159E-12, -1.76963958E+04,
                       5.35912030E+00]),
                NASA([923.27, 5000.00],
                     [ 4.95152227E+00,  3.54229036E-03, -1.01040257E-06,
                       1.61940839E-10, -1.10208599E-14, -1.81227958E+04,
                      -1.52914338E+00])),
        transport=gas_transport(geom='nonlinear',
                                diam=3.458,
                                well_depth=107.4,
                                rot_relax=3.8))

species(name='C2H4(12)',
        atoms='C:2 H:4',
        thermo=(NASA([200.00, 1000.00],
                     [ 3.95920000E+00, -7.57051000E-03,  5.70990000E-05,
                      -6.91588000E-08,  2.69884000E-11,  5.08978000E+03,
                       4.09730000E+00]),
                NASA([1000.00, 6000.00],
                     [ 3.99183000E+00,  1.04834000E-02, -3.71721000E-06,
                       5.94628000E-10, -3.53630000E-14,  4.26866000E+03,
                      -2.69082000E-01])),
        transport=gas_transport(geom='nonlinear',
                                diam=3.971,
                                well_depth=280.801,
                                rot_relax=1.5))

species(name='CH3(13)',
        atoms='C:1 H:3',
        thermo=(NASA([200.00, 1000.00],
                     [ 3.65718000E+00,  2.12660000E-03,  5.45839000E-06,
                      -6.61810000E-09,  2.46571000E-12,  1.64227000E+04,
                       1.67354000E+00]),
                NASA([1000.00, 6000.00],
                     [ 2.97812000E+00,  5.79785000E-03, -1.97558000E-06,
                       3.07298000E-10, -1.79174000E-14,  1.65095000E+04,
                       4.72248000E+00])),
        transport=gas_transport(geom='nonlinear',
                                diam=3.8,
                                well_depth=144.001))

species(name='HCO(14)',
        atoms='C:1 H:1 O:1',
        thermo=(NASA([200.00, 1000.00],
                     [ 4.23755000E+00, -3.32075000E-03,  1.40030000E-05,
                      -1.34240000E-08,  4.37416000E-12,  3.87241000E+03,
                       3.30835000E+00]),
                NASA([1000.00, 6000.00],
                     [ 3.92002000E+00,  2.52279000E-03, -6.71004000E-07,
                       1.05616000E-10, -7.43798000E-15,  3.65343000E+03,
                       3.58077000E+00])),
        transport=gas_transport(geom='nonlinear',
                                diam=3.59,
                                well_depth=498.002))

species(name='CH3CO(15)',
        atoms='C:2 H:3 O:1',
        thermo=(NASA([200.00, 1000.00],
                     [ 4.03587000E+00,  8.77295000E-04,  3.07100000E-05,
                      -3.92476000E-08,  1.52969000E-11, -2.68207000E+03,
                       7.86177000E+00]),
                NASA([1000.00, 6000.00],
                     [ 5.31372000E+00,  9.17378000E-03, -3.32204000E-06,
                       5.39475000E-10, -3.24524000E-14, -3.64504000E+03,
                      -1.67576000E+00])),
        transport=gas_transport(geom='nonlinear',
                                diam=3.97,
                                well_depth=436.001,
                                rot_relax=2.0))

species(name='CH2CHO(16)',
        atoms='C:2 H:3 O:1',
        thermo=(NASA([200.00, 1000.00],
                     [ 2.66874000E+00,  9.62330000E-03,  1.60617000E-05,
                      -2.87682000E-08,  1.25030000E-11,  2.19438000E+02,
                       1.25694000E+01]),
                NASA([1000.00, 6000.00],
                     [ 5.91637000E+00,  8.84650000E-03, -3.14955000E-06,
                       5.05413000E-10, -3.01305000E-14, -1.04780000E+03,
                      -6.10650000E+00])),
        transport=gas_transport(geom='nonlinear',
                                diam=3.97,
                                well_depth=436.001,
                                rot_relax=2.0))

species(name='C2H3(17)',
        atoms='C:2 H:3',
        thermo=(NASA([200.00, 1000.00],
                     [ 3.36378000E+00,  2.65766000E-04,  2.79621000E-05,
                      -3.72987000E-08,  1.51590000E-11,  3.44750000E+04,
                       7.91510000E+00]),
                NASA([1000.00, 6000.00],
                     [ 4.15027000E+00,  7.54021000E-03, -2.62998000E-06,
                       4.15974000E-10, -2.45408000E-14,  3.38566000E+04,
                       1.72812000E+00])),
        transport=gas_transport(geom='nonlinear',
                                diam=4.1,
                                well_depth=209.001,
                                rot_relax=1.0))

species(name='CH2(18)',
        atoms='C:1 H:2',
        thermo=(NASA([100.00, 1104.57],
                     [ 4.01192395E+00, -1.54979436E-04,  3.26298023E-06,
                      -2.40422025E-09,  5.69497431E-13,  4.58676802E+04,
                       5.33200236E-01]),
                NASA([1104.57, 5000.00],
                     [ 3.14983422E+00,  2.96674194E-03, -9.76055446E-07,
                       1.54115181E-10, -9.50337275E-15,  4.60581389E+04,
                       4.77807473E+00])),
        transport=gas_transport(geom='nonlinear',
                                diam=3.8,
                                well_depth=144.001))

species(name='CH2O(19)',
        atoms='C:1 H:2 O:1',
        thermo=(NASA([200.00, 1000.00],
                     [ 4.79372000E+00, -9.90833000E-03,  3.73220000E-05,
                      -3.79285000E-08,  1.31773000E-11, -1.43792000E+04,
                       6.02798000E-01]),
                NASA([1000.00, 6000.00],
                     [ 3.16953000E+00,  6.19321000E-03, -2.25056000E-06,
                       3.65976000E-10, -2.20149000E-14, -1.45487000E+04,
                       6.04208000E+00])),
        transport=gas_transport(geom='nonlinear',
                                diam=3.59,
                                well_depth=498.002,
                                rot_relax=2.0))

species(name='CH2CO(20)',
        atoms='C:2 H:2 O:1',
        thermo=(NASA([200.00, 1000.00],
                     [ 2.13241000E+00,  1.81319000E-02, -1.74093000E-05,
                       9.35336000E-09, -2.01725000E-12, -7.14809000E+03,
                       1.33808000E+01]),
                NASA([1000.00, 6000.00],
                     [ 5.75871000E+00,  6.35124000E-03, -2.25955000E-06,
                       3.62322000E-10, -2.15856000E-14, -8.08533000E+03,
                      -4.96490000E+00])),
        transport=gas_transport(geom='nonlinear',
                                diam=3.97,
                                well_depth=436.001,
                                rot_relax=2.0))

species(name='CH4(21)',
        atoms='C:1 H:4',
        thermo=(NASA([100.00, 1084.14],
                     [ 4.20540357E+00, -5.35543930E-03,  2.51118744E-05,
                      -2.13757274E-08,  5.97501614E-12, -1.01619428E+04,
                      -9.21237248E-01]),
                NASA([1084.14, 5000.00],
                     [ 9.08332935E-01,  1.14539750E-02, -4.57167583E-06,
                       8.29177165E-10, -5.66303015E-14, -9.72000388E+03,
                       1.39927137E+01])),
        transport=gas_transport(geom='nonlinear',
                                diam=3.746,
                                well_depth=141.4,
                                polar=2.6,
                                rot_relax=13.0))

species(name='CO(22)',
        atoms='C:1 O:1',
        thermo=(NASA([100.00, 1669.94],
                     [ 3.59709644E+00, -1.02423579E-03,  2.83335841E-06,
                      -1.75824741E-09,  3.42585699E-13, -1.43431899E+04,
                       3.45822256E+00]),
                NASA([1669.94, 5000.00],
                     [ 2.92796579E+00,  1.81929302E-03, -8.35301812E-07,
                       1.51267769E-10, -9.88861589E-15, -1.42927136E+04,
                       6.51151382E+00])),
        transport=gas_transport(geom='linear',
                                diam=3.65,
                                well_depth=98.1,
                                polar=1.95,
                                rot_relax=1.8))

species(name='C2H2(23)',
        atoms='C:2 H:2',
        thermo=(NASA([200.00, 1000.00],
                     [ 8.08680000E-01,  2.33616000E-02, -3.55172000E-05,
                       2.80153000E-08, -8.50075000E-12,  2.64290000E+04,
                       1.39397000E+01]),
                NASA([1000.00, 6000.00],
                     [ 4.65878000E+00,  4.88397000E-03, -1.60829000E-06,
                       2.46975000E-10, -1.38606000E-14,  2.57594000E+04,
                      -3.99838000E+00])),
        transport=gas_transport(geom='linear',
                                diam=4.1,
                                well_depth=209.001,
                                rot_relax=2.5))

species(name='C2H5(24)',
        atoms='C:2 H:5',
        thermo=(NASA([200.00, 1000.00],
                     [ 4.24186000E+00, -3.56905000E-03,  4.82667000E-05,
                      -5.85401000E-08,  2.25805000E-11,  1.29690000E+04,
                       4.44704000E+00]),
                NASA([1000.00, 6000.00],
                     [ 4.32196000E+00,  1.23931000E-02, -4.39681000E-06,
                       7.03520000E-10, -4.18435000E-14,  1.21759000E+04,
                       1.71104000E-01])),
        transport=gas_transport(geom='nonlinear',
                                diam=4.302,
                                well_depth=252.301,
                                rot_relax=1.5))

species(name='CHF2(25)',
        atoms='C:1 F:2 H:1',
        thermo=(NASA([298.00, 1150.00],
                     [ 1.83276000E+00,  1.34164000E-02, -9.54328000E-06,
                       2.95930000E-09, -2.79200000E-13, -3.08571000E+04,
                       1.67589000E+01]),
                NASA([1150.00, 3000.00],
                     [ 5.44828000E+00,  4.41165000E-03, -1.74189000E-06,
                       3.09200000E-10, -2.01762000E-14, -3.19610000E+04,
                      -2.29455000E+00])),
        transport=gas_transport(geom='nonlinear',
                                diam=4.123,
                                well_depth=262.0,
                                dipole=1.8))

species(name='IC3H7(26)',
        atoms='C:3 H:7',
        thermo=(NASA([200.00, 1000.00],
                     [ 5.47421000E+00, -8.42537000E-03,  8.04608000E-05,
                      -9.49288000E-08,  3.59831000E-11,  9.04939000E+03,
                       3.40542000E+00]),
                NASA([1000.00, 6000.00],
                     [ 5.30597000E+00,  1.89855000E-02, -6.74315000E-06,
                       1.07994000E-09, -6.42785000E-14,  7.78749000E+03,
                      -2.23234000E+00])),
        transport=gas_transport(geom='nonlinear',
                                diam=4.982,
                                well_depth=266.801,
                                rot_relax=1.0))

species(name='NC3H7(27)',
        atoms='C:3 H:7',
        thermo=(NASA([200.00, 1000.00],
                     [ 4.08211000E+00,  5.23240000E-03,  5.13554000E-05,
                      -6.99344000E-08,  2.81819000E-11,  1.04075000E+04,
                       8.39535000E+00]),
                NASA([1000.00, 6000.00],
                     [ 6.49637000E+00,  1.77338000E-02, -6.24898000E-06,
                       9.95389000E-10, -5.90200000E-14,  8.85974000E+03,
                      -8.56390000E+00])),
        transport=gas_transport(geom='nonlinear',
                                diam=4.982,
                                well_depth=266.801,
                                rot_relax=1.0))

species(name='C3H6(28)',
        atoms='C:3 H:6',
        thermo=(NASA([200.00, 1000.00],
                     [ 3.83464000E+00,  3.29079000E-03,  5.05228000E-05,
                      -6.66251000E-08,  2.63707000E-11,  7.88717000E+02,
                       7.53408000E+00]),
                NASA([1000.00, 6000.00],
                     [ 6.03870000E+00,  1.62964000E-02, -5.82131000E-06,
                       9.35937000E-10, -5.58603000E-14, -7.41715000E+02,
                      -8.43826000E+00])),
        transport=gas_transport(geom='nonlinear',
                                diam=4.982,
                                well_depth=266.801,
                                rot_relax=1.0))

species(name='IC3H7O2(29)',
        atoms='C:3 H:7 O:2',
        thermo=(NASA([200.00, 1395.00],
                     [ 3.42416000E+00,  3.84321000E-02, -2.50950000E-05,
                       8.80154000E-09, -1.31154000E-12, -9.90212000E+03,
                       1.03893000E+01]),
                NASA([1395.00, 5000.00],
                     [ 1.33992000E+01,  1.58890000E-02, -5.40791000E-06,
                       8.36617000E-10, -4.84119000E-14, -1.34912000E+04,
                      -4.35330000E+01])),
        transport=gas_transport(geom='nonlinear',
                                diam=6.057,
                                well_depth=422.794))

species(name='C2H5O2(30)',
        atoms='C:2 H:5 O:2',
        thermo=(NASA([200.00, 1389.00],
                     [ 3.90352000E+00,  2.22599000E-02, -1.01610000E-05,
                       1.71710000E-09,  1.88167000E-14, -5.09654000E+03,
                       8.98723000E+00]),
                NASA([1389.00, 5000.00],
                     [ 9.50283000E+00,  1.20430000E-02, -4.09492000E-06,
                       6.33049000E-10, -3.66134000E-14, -7.37069000E+03,
                      -2.21717000E+01])),
        transport=gas_transport(geom='nonlinear',
                                diam=4.037,
                                well_depth=395.0,
                                dipole=1.3,
                                rot_relax=1.0))

species(name='CH3O2(31)',
        atoms='C:1 H:3 O:2',
        thermo=(NASA([200.00, 1000.00],
                     [ 4.97170000E+00, -5.29357000E-03,  4.77334000E-05,
                      -5.77066000E-08,  2.22220000E-11, -1.29022000E+02,
                       2.81501000E+00]),
                NASA([1000.00, 6000.00],
                     [ 5.55530000E+00,  9.12236000E-03, -3.23852000E-06,
                       5.18714000E-10, -3.08834000E-14, -1.03569000E+03,
                      -3.99159000E+00])),
        transport=gas_transport(geom='nonlinear',
                                diam=3.69,
                                well_depth=417.0,
                                dipole=1.7,
                                rot_relax=2.0))

species(name='[O]OC(F)F(32)',
        atoms='C:1 F:2 H:1 O:2',
        thermo=(NASA([10.00, 497.32],
                     [ 3.92725000E+00,  4.70123000E-03,  7.24333000E-05,
                      -1.66658000E-07,  1.13367000E-10, -5.14702000E+04,
                       1.15590000E+01]),
                NASA([497.32, 3000.00],
                     [ 3.77619000E+00,  1.96241000E-02, -1.39226000E-05,
                       4.52949000E-09, -5.50671000E-13, -5.16247000E+04,
                       1.04780000E+01])),
        transport=gas_transport(geom='nonlinear',
                                diam=5.198,
                                well_depth=386.937))

species(name='NC3H7O2(33)',
        atoms='C:3 H:7 O:2',
        thermo=(NASA([200.00, 1500.00],
                     [ 3.13949000E+00,  3.66456000E-02, -2.03703000E-05,
                       4.70671000E-09, -1.99573000E-13, -7.91997000E+03,
                       1.42199000E+01]),
                NASA([1500.00, 5000.00],
                     [ 1.36927000E+01,  1.46801000E-02, -4.79794000E-06,
                       7.22769000E-10, -4.10733000E-14, -1.17562000E+04,
                      -4.32476000E+01])),
        transport=gas_transport(geom='nonlinear',
                                diam=6.025,
                                well_depth=420.255))

species(name='CF2O(34)',
        atoms='C:1 F:2 O:1',
        thermo=(NASA([298.00, 1150.00],
                     [ 1.17614000E+00,  2.10870000E-02, -2.39216000E-05,
                       1.39949000E-08, -3.37605000E-12, -7.79513000E+04,
                       1.91134000E+01]),
                NASA([1150.00, 3000.00],
                     [ 6.79131000E+00,  3.38305000E-03, -1.43012000E-06,
                       2.71226000E-10, -1.90524000E-14, -7.94540000E+04,
                      -9.48312000E+00])),
        transport=gas_transport(geom='nonlinear',
                                diam=4.906,
                                well_depth=350.5))

species(name='C[C]C-2(35)',
        atoms='C:3 H:6',
        thermo=(NASA([100.00, 1330.24],
                     [ 2.92363097E+00,  2.10869546E-02, -1.82395703E-06,
                      -5.35950644E-09,  1.86095634E-12,  3.71014625E+04,
                       1.98374417E+01]),
                NASA([1330.24, 5000.00],
                     [ 5.20767370E+00,  2.05521780E-02, -8.36241018E-06,
                       1.49634437E-09, -1.00128398E-13,  3.59334449E+04,
                       6.06027978E+00])),
        transport=gas_transport(geom='nonlinear',
                                diam=5.118,
                                well_depth=237.1))

species(name='HF(36)',
        atoms='F:1 H:1',
        thermo=(NASA([298.00, 1250.00],
                     [ 3.43657000E+00,  4.86021000E-04, -1.25240000E-06,
                       1.36475000E-09, -4.09574000E-13, -3.38001000E+04,