units(length='cm', time='s', quantity='mol', act_energy='kcal/mol')

ideal_gas(name='gas',
          elements="H D T C Ci O Oi N Ne Ar He Si S F Cl Br I X",
          species="""N2                Ne                CH2F2(1)
                     O2(2)             H2O(3)            OH(4)
                     H(5)              O(6)              H2(7)
                     HO2(10)           H2O2(11)          CO(12)
                     CO2(13)           HCO(14)           CH2O(19)
                     F(37)             HF(38)            CHF(40)
                     CHF3(41)          CF2(42)           CF3(44)
                     CHFO(46)          CF3O(47)          CF2O(48)
                     CF(49)            CFO(50)           CHFCF2(54)
                     CH2CF2(56)        CF2CF2(60)        CHF2-CH2(63)
                     CH3-CF2(64)       CHF2-CHF(66)      CH2F-CF2(67)
                     CHF2-CF2(68)      CHFCF[Z](71)      CF2CH(72)
                     CHF2(81)          CHF(88)           CF2(89)
                     CH2F(91)          [O]OC(F)F(128)    FC(F)C(F)F(130)
                     FC1OO1(136)       [O]C([O])F(138)   CHO2(142)
                     CFO2(143)         [O]C(F)F(146)     [O]O[C](F)F(147)
                     CF2O2(152)        O2(176)           F[C]C(F)F(182)
                     O[C](F)F(220)     C2F4O2(252)       F[C]C(F)F(276)
                     FC1OC1(F)F(286)   C2HF4O2(406)      CF3O2(416)
                     C3H2F5(444)       C2HF3O(467)       OO[C](F)F(503)
                     C2H2F3O2(603)     C2HF2O3(899)      FC1(F)OO1(932)
                     C2H2F3(962)       C2HF2O(1007)      C3H2F5O2(1017)
                     C3H2F5O2(1096)    C3H3F4(1175)      FC1(F)CO1(1224)
                     C2HF2O3(2126)""",
          reactions='all',
          transport='Mix',
          initial_state=state(temperature=300.0, pressure=OneAtm))

#-------------------------------------------------------------------------------
# Element data
#-------------------------------------------------------------------------------

element(symbol='Ci', atomic_mass=13.003)
element(symbol='D', atomic_mass=2.014)
element(symbol='Oi', atomic_mass=17.999)
element(symbol='T', atomic_mass=3.016)
element(symbol='X', atomic_mass=195.083)
#-------------------------------------------------------------------------------
# Species data
#-------------------------------------------------------------------------------

species(name='N2',
        atoms='N:2',
        thermo=(NASA([200.00, 1000.00],
                     [ 3.53101000E+00, -1.23661000E-04, -5.02999000E-07,
                       2.43531000E-09, -1.40881000E-12, -1.04698000E+03,
                       2.96747000E+00]),
                NASA([1000.00, 6000.00],
                     [ 2.95258000E+00,  1.39690000E-03, -4.92632000E-07,
                       7.86010000E-11, -4.60755000E-15, -9.23949000E+02,
                       5.87189000E+00])),
        transport=gas_transport(geom='linear',
                                diam=3.621,
                                well_depth=97.53,
                                polar=1.76,
                                rot_relax=4.0))

species(name='Ne',
        atoms='Ne:1',
        thermo=(NASA([200.00, 1000.00],
                     [ 2.50000000E+00,  0.00000000E+00,  0.00000000E+00,
                       0.00000000E+00,  0.00000000E+00, -7.45375000E+02,
                       3.35532000E+00]),
                NASA([1000.00, 6000.00],
                     [ 2.50000000E+00,  0.00000000E+00,  0.00000000E+00,
                       0.00000000E+00,  0.00000000E+00, -7.45375000E+02,
                       3.35532000E+00])),
        transport=gas_transport(geom='atom',
                                diam=3.758,
                                well_depth=148.6))

species(name='CH2F2(1)',
        atoms='C:1 F:2 H:2',
        thermo=(NASA([298.00, 1100.00],
                     [ 1.73901000E+00,  1.19379000E-02, -2.69321000E-07,
                      -5.51894000E-09,  2.18135000E-12, -5.54397000E+04,
                       1.62342000E+01]),
                NASA([1100.00, 3000.00],
                     [ 4.55850000E+00,  8.31979000E-03, -3.37157000E-06,
                       6.18797000E-10, -4.19515000E-14, -5.65062000E+04,
                       4.36637000E-01])),
        transport=gas_transport(geom='nonlinear',
                                diam=4.123,
                                well_depth=262.0,
                                dipole=1.8))

species(name='O2(2)',
        atoms='O:2',
        thermo=(NASA([100.00, 1074.55],
                     [ 3.53732243E+00, -1.21571655E-03,  5.31620279E-06,
                      -4.89446465E-09,  1.45846271E-12, -1.03858849E+03,
                       4.68368180E+00]),
                NASA([1074.55, 5000.00],
                     [ 3.15382077E+00,  1.67804376E-03, -7.69974269E-07,
                       1.51275470E-10, -1.08782420E-14, -1.04081727E+03,
                       6.16755852E+00])),
        transport=gas_transport(geom='linear',
                                diam=3.458,
                                well_depth=107.4,
                                polar=1.6,
                                rot_relax=3.8))

species(name='H2O(3)',
        atoms='H:2 O:1',
        thermo=(NASA([100.00, 1130.24],
                     [ 4.05763583E+00, -7.87935820E-04,  2.90877481E-06,
                      -1.47518847E-09,  2.12842891E-13, -3.02815866E+04,
                      -3.11364048E-01]),
                NASA([1130.24, 5000.00],
                     [ 2.84325052E+00,  2.75108536E-03, -7.81031435E-07,
                       1.07243628E-10, -5.79392151E-15, -2.99586128E+04,
                       5.91041953E+00])),
        transport=gas_transport(geom='nonlinear',
                                diam=2.605,
                                well_depth=572.402,
                                dipole=1.844,
                                rot_relax=4.0))

species(name='OH(4)',
        atoms='H:1 O:1',
        thermo=(NASA([100.00, 1145.76],
                     [ 3.51456840E+00,  2.92733461E-05, -5.32150328E-07,
                       1.01947489E-09, -3.85939283E-13,  3.41425418E+03,
                       2.10434754E+00]),
                NASA([1145.76, 5000.00],
                     [ 3.07193719E+00,  6.04019927E-04, -1.39806418E-08,
                      -2.13440701E-11,  2.48061276E-15,  3.57938795E+03,
                       4.57801500E+00])),
        transport=gas_transport(geom='linear',
                                diam=2.75,
                                well_depth=80.0))

species(name='H(5)',
        atoms='H:1',
        thermo=(NASA([100.00, 4230.24],
                     [ 2.50000000E+00,  9.05028667E-14, -1.20494648E-16,
                       5.23431737E-20, -6.99813850E-24,  2.54742178E+04,
                      -4.44972896E-01]),
                NASA([4230.24, 5000.00],
                     [ 2.49999605E+00,  3.58763060E-09, -1.22015473E-12,
                       1.84118067E-16, -1.04000002E-20,  2.54742212E+04,
                      -4.44947992E-01])),
        transport=gas_transport(geom='atom',
                                diam=2.05,
                                well_depth=145.0))

species(name='O(6)',
        atoms='O:1',
        thermo=(NASA([100.00, 4230.24],
                     [ 2.50000000E+00,  9.05028667E-14, -1.20494648E-16,
                       5.23431737E-20, -6.99813850E-24,  2.92302441E+04,
                       5.12616427E+00]),
                NASA([4230.24, 5000.00],
                     [ 2.49999605E+00,  3.58763060E-09, -1.22015473E-12,
                       1.84118067E-16, -1.04000002E-20,  2.92302476E+04,
                       5.12618918E+00])),
        transport=gas_transport(geom='atom',
                                diam=2.75,
                                well_depth=80.0))

species(name='H2(7)',
        atoms='H:2',
        thermo=(NASA([100.00, 1959.08],
                     [ 3.43536431E+00,  2.12708634E-04, -2.78621143E-07,
                       3.40264107E-10, -7.76024422E-14, -1.03135985E+03,
                      -3.90841808E+00]),
                NASA([1959.08, 5000.00],
                     [ 2.78814513E+00,  5.87667842E-04,  1.58997823E-07,
                      -5.52713751E-11,  4.34292562E-15, -5.96132053E+02,
                       1.12855390E-01])),
        transport=gas_transport(geom='linear',
                                diam=2.92,
                                well_depth=38.0,
                                polar=0.79,
                                rot_relax=280.0))

species(name='HO2(10)',
        atoms='H:1 O:2',
        thermo=(NASA([200.00, 1000.00],
                     [ 4.30180000E+00, -4.74912000E-03,  2.11583000E-05,
                      -2.42764000E-08,  9.29225000E-12,  2.64018000E+02,
                       3.71666000E+00]),
                NASA([1000.00, 5000.00],
                     [ 4.17229000E+00,  1.88118000E-03, -3.46277000E-07,
                       1.94658000E-11,  1.76257000E-16,  3.10207000E+01,
                       2.95768000E+00])),
        transport=gas_transport(geom='nonlinear',
                                diam=3.458,
                                well_depth=107.4,
                                rot_relax=1.0))

species(name='H2O2(11)',
        atoms='H:2 O:2',
        thermo=(NASA([200.00, 1000.00],
                     [ 4.31515000E+00, -8.47391000E-04,  1.76404000E-05,
                      -2.26763000E-08,  9.08950000E-12, -1.77067000E+04,
                       3.27373000E+00]),
                NASA([1000.00, 6000.00],
                     [ 4.57977000E+00,  4.05326000E-03, -1.29845000E-06,
                       1.98211000E-10, -1.13969000E-14, -1.80072000E+04,
                       6.64971000E-01])),
        transport=gas_transport(geom='nonlinear',
                                diam=3.458,
                                well_depth=107.4,
                                rot_relax=3.8))

species(name='CO(12)',
        atoms='C:1 O:1',
        thermo=(NASA([100.00, 1571.64],
                     [ 3.56837990E+00, -8.52124792E-04,  2.48917582E-06,
                      -1.56330849E-09,  3.13594738E-13, -1.42842549E+04,
                       3.57912211E+00]),
                NASA([1571.64, 5000.00],
                     [ 2.91306747E+00,  1.64657731E-03, -6.88614547E-07,
                       1.21037299E-10, -7.84017568E-15, -1.41808850E+04,
                       6.71045295E+00])),
        transport=gas_transport(geom='linear',
                                diam=3.65,
                                well_depth=98.1,
                                polar=1.95,
                                rot_relax=1.8))

species(name='CO2(13)',
        atoms='C:1 O:2',
        thermo=(NASA([200.00, 1000.00],
                     [ 2.35681000E+00,  8.98413000E-03, -7.12206000E-06,
                       2.45730000E-09, -1.42885000E-13, -4.83720000E+04,
                       9.90090000E+00]),
                NASA([1000.00, 6000.00],
                     [ 4.63651000E+00,  2.74146000E-03, -9.95898000E-07,
                       1.60387000E-10, -9.16199000E-15, -4.90249000E+04,
                      -1.93490000E+00])),
        transport=gas_transport(geom='linear',
                                diam=3.763,
                                well_depth=244.001,
                                polar=2.65,
                                rot_relax=2.1))

species(name='HCO(14)',
        atoms='C:1 H:1 O:1',
        thermo=(NASA([200.00, 1000.00],
                     [ 4.23755000E+00, -3.32075000E-03,  1.40030000E-05,
                      -1.34240000E-08,  4.37416000E-12,  3.87241000E+03,
                       3.30835000E+00]),
                NASA([1000.00, 6000.00],
                     [ 3.92002000E+00,  2.52279000E-03, -6.71004000E-07,
                       1.05616000E-10, -7.43798000E-15,  3.65343000E+03,
                       3.58077000E+00])),
        transport=gas_transport(geom='nonlinear',
                                diam=3.59,
                                well_depth=498.002))

species(name='CH2O(19)',
        atoms='C:1 H:2 O:1',
        thermo=(NASA([200.00, 1000.00],
                     [ 4.79372000E+00, -9.90833000E-03,  3.73220000E-05,
                      -3.79285000E-08,  1.31773000E-11, -1.43792000E+04,
                       6.02798000E-01]),
                NASA([1000.00, 6000.00],
                     [ 3.16953000E+00,  6.19321000E-03, -2.25056000E-06,
                       3.65976000E-10, -2.20149000E-14, -1.45487000E+04,
                       6.04208000E+00])),
        transport=gas_transport(geom='nonlinear',
                                diam=3.59,
                                well_depth=498.002,
                                rot_relax=2.0))

species(name='F(37)',
        atoms='F:1',
        thermo=(NASA([298.00, 1400.00],
                     [ 2.90371000E+00, -6.35296000E-04,  2.64735000E-07,
                       7.69063000E-11, -5.45254000E-14,  8.67227000E+03,
                       2.70828000E+00]),
                NASA([1400.00, 3000.00],
                     [ 2.65117000E+00, -1.40130000E-04,  5.19236000E-08,
                      -8.84954000E-12,  5.90280000E-16,  8.75829000E+03,
                       4.07857000E+00])),
        transport=gas_transport(geom='atom',
                                diam=2.75,
                                well_depth=80.0))

species(name='HF(38)',
        atoms='F:1 H:1',
        thermo=(NASA([298.00, 1250.00],
                     [ 3.43657000E+00,  4.86021000E-04, -1.25240000E-06,
                       1.36475000E-09, -4.09574000E-13, -3.38001000E+04,
                       1.20682000E+00]),
                NASA([1250.00, 3000.00],
                     [ 2.78130000E+00,  1.03959000E-03, -2.41735000E-07,
                       2.68416000E-11, -1.09766000E-15, -3.35042000E+04,
                       5.01970000E+00])),
        transport=gas_transport(geom='linear',
                                diam=3.148,
                                well_depth=330.001,
                                dipole=1.92,
                                polar=2.46,
                                rot_relax=1.0))

species(name='CHF(40)',
        atoms='C:1 F:1 H:1',
        thermo=(NASA([100.00, 1017.48],
                     [ 3.92903381E+00, -1.13288014E-03,  1.33434976E-05,
                      -1.59096117E-08,  5.65026357E-12,  2.62804215E+04,
                       4.54270221E+00]),
                NASA([1017.48, 5000.00],
                     [ 5.22565578E+00,  1.01070657E-03, -4.91442388E-07,
                       1.49460009E-10, -1.40400282E-14,  2.56417454E+04,
                      -3.57710995E+00])),
        transport=gas_transport(geom='nonlinear',
                                diam=4.332,
                                well_depth=288.989))

species(name='CHF3(41)',
        atoms='C:1 F:3 H:1',
        thermo=(NASA([298.00, 1300.00],
                     [ 6.80758000E-01,  2.39859000E-02, -2.18336000E-05,
                       9.98026000E-09, -1.85179000E-12, -8.49894000E+04,
                       2.10617000E+01]),
                NASA([1300.00, 3000.00],
                     [ 7.52417000E+00,  5.23005000E-03, -2.03600000E-06,
                       3.57296000E-10, -2.30997000E-14, -8.70225000E+04,
                      -1.46112000E+01])),
        transport=gas_transport(geom='nonlinear',
                                diam=4.123,
                                well_depth=262.0,
                                dipole=1.8))

species(name='CF2(42)',
        atoms='C:1 F:2',
        thermo=(NASA([298.00, 1300.00],
                     [ 2.28591000E+00,  1.07608000E-02, -1.05382000E-05,
                       4.89881000E-09, -8.86384000E-13,  4.21669000E+03,
                       1.31348000E+01]),
                NASA([1300.00, 3000.00],
                     [ 5.33121000E+00,  1.97748000E-03, -9.60248000E-07,
                       2.10704000E-10, -1.59540000E-14,  3.36649000E+03,
                      -2.56367000E+00])),
        transport=gas_transport(geom='nonlinear',
                                diam=4.226,
                                well_depth=289.295))

species(name='CF3(44)',
        atoms='C:1 F:3',
        thermo=(NASA([298.00, 1250.00],
                     [ 1.35729000E+00,  2.15758000E-02, -2.39020000E-05,
                       1.29611000E-08, -2.80173000E-12, -5.73913000E+04,
                       1.86474000E+01]),
                NASA([1250.00, 3000.00],
                     [ 7.73167000E+00,  2.27115000E-03, -8.90496000E-07,
                       1.52938000E-10, -9.50838000E-15, -5.91457000E+04,
                      -1.40202000E+01])),
        transport=gas_transport(geom='nonlinear',
                                diam=4.32,
                                well_depth=121.0))

species(name='CHFO(46)',
        atoms='C:1 F:1 H:1 O:1',
        thermo=(NASA([298.00, 1150.00],
                     [ 2.11850000E+00,  1.07740000E-02, -5.51582000E-06,
                       5.81519000E-10,  2.17042000E-13, -4.63567000E+04,
                       1.46524000E+01]),
                NASA([1150.00, 3000.00],
                     [ 4.81925000E+00,  5.05418000E-03, -2.01421000E-06,
                       3.63591000E-10, -2.44724000E-14, -4.72631000E+04,
                       9.72251000E-02])),
        transport=gas_transport(geom='nonlinear',
                                diam=4.906,
                                well_depth=350.5))

species(name='CF3O(47)',
        atoms='C:1 F:3 O:1',
        thermo=(NASA([298.00, 1250.00],
                     [ 1.38724000E+00,  2.98955000E-02, -3.42745000E-05,
                       1.91806000E-08, -4.24959000E-12, -8.03369000E+04,
                       1.97276000E+01]),
                NASA([1250.00, 3000.00],
                     [ 9.82041000E+00,  3.38916000E-03, -1.44654000E-06,
                       2.76962000E-10, -1.95580000E-14, -8.25866000E+04,
                      -2.31971000E+01])),
        transport=gas_transport(geom='nonlinear',
                                diam=4.906,
                                well_depth=350.5))

species(name='CF2O(48)',
        atoms='C:1 F:2 O:1',
        thermo=(NASA([298.00, 1150.00],
                     [ 1.17614000E+00,  2.10870000E-02, -2.39216000E-05,
                       1.39949000E-08, -3.37605000E-12, -7.79513000E+04,
                       1.91134000E+01]),
                NASA([1150.00, 3000.00],
                     [ 6.79131000E+00,  3.38305000E-03, -1.43012000E-06,
                       2.71226000E-10, -1.90524000E-14, -7.94540000E+04,
                      -9.48312000E+00])),
        transport=gas_transport(geom='nonlinear',
                                diam=4.906,
                                well_depth=350.5))

species(name='CF(49)',
        atoms='C:1 F:1',
        thermo=(NASA([298.00, 1100.00],
                     [ 3.35384000E+00,  2.09097000E-04,  3.20774000E-06,
                      -3.66875000E-09,  1.19863000E-12,  2.79077000E+04,
                       6.33463000E+00]),
                NASA([1100.00, 3000.00],
                     [ 3.66497000E+00,  9.73681000E-04, -4.10982000E-07,
                       8.00629000E-11, -5.64981000E-15,  2.77242000E+04,
                       4.28163000E+00])),
        transport=gas_transport(geom='linear',
                                diam=3.635,
                                well_depth=94.2))

species(name='CFO(50)',
        atoms='C:1 F:1 O:1',
        thermo=(NASA([298.00, 1250.00],
                     [ 2.94061000E+00,  7.47092000E-03, -6.21833000E-06,
                       2.62916000E-09, -4.73222000E-13, -2.17923000E+04,
                       1.11689000E+01]),
                NASA([1250.00, 3000.00],
                     [ 5.14996000E+00,  1.84938000E-03, -7.40232000E-07,
                       1.32785000E-10, -8.83060000E-15, -2.24884000E+04,
                      -4.96830000E-01])),
        transport=gas_transport(geom='nonlinear',
                                diam=4.0,
                                well_depth=860.0))

species(name='CHFCF2(54)',
        atoms='C:2 F:3 H:1',
        thermo=(NASA([298.00, 1100.00],
                     [ 1.35521000E+00,  3.23113000E-02, -3.57904000E-05,
                       2.09758000E-08, -5.14220000E-12, -6.06458000E+04,
                       1.92938000E+01]),
                NASA([1100.00, 3000.00],
                     [ 9.29782000E+00,  6.69066000E-03, -2.71841000E-06,
                       4.97590000E-10, -3.35867000E-14, -6.27051000E+04,
                      -2.09391000E+01])),
        transport=gas_transport(geom='nonlinear',
                                diam=4.442,
                                well_depth=251.5,
                                dipole=1.4))

species(name='CH2CF2(56)',
        atoms='C:2 F:2 H:2',
        thermo=(NASA([298.00, 1100.00],
                     [-5.44641000E-01,  3.61013000E-02, -4.24522000E-05,
                       2.68678000E-08, -7.00490000E-12, -4.15789000E+04,
                       2.59139000E+01]),
                NASA([1100.00, 3000.00],
                     [ 7.52692000E+00,  8.16727000E-03, -3.24648000E-06,
                       5.85466000E-10, -3.90185000E-14, -4.35755000E+04,
                      -1.44929000E+01])),
        transport=gas_transport(geom='nonlinear',
                                diam=4.442,
                                well_depth=251.5,
                                dipole=1.4))

species(name='CF2CF2(60)',
        atoms='C:2 F:4',
        thermo=(NASA([298.00, 1100.00],
                     [ 2.59735000E+00,  3.39059000E-02, -4.12239000E-05,
                       2.60507000E-08, -6.78805000E-12, -8.11789000E+04,
                       1.27972000E+01]),
                NASA([1100.00, 3000.00],
                     [ 1.13243000E+01,  4.99631000E-03, -2.11782000E-06,
                       3.98619000E-10, -2.75039000E-14, -8.34266000E+04,
                      -3.12702000E+01])),
        transport=gas_transport(geom='nonlinear',
                                diam=4.647,
                                well_depth=254.2))

species(name='CHF2-CH2(63)',
        atoms='C:2 F:2 H:3',
        thermo=(NASA([298.00, 1100.00],
                     [ 1.21237000E+00,  2.99528000E-02, -2.78097000E-05,
                       1.45866000E-08, -3.35363000E-12, -3.48400000E+04,
                       2.11127000E+01]),
                NASA([1100.00, 3000.00],
                     [ 6.79826000E+00,  1.21309000E-02, -5.28714000E-06,
                       1.03624000E-09, -7.40874000E-14, -3.62912000E+04,
                      -7.21609000E+00])),
        transport=gas_transport(geom='nonlinear',
                                diam=4.798,
                                well_depth=323.4,
                                dipole=2.3))

species(name='CH3-CF2(64)',
        atoms='C:2 F:2 H:3',
        thermo=(NASA([298.00, 1150.00],
                     [ 2.31422000E+00,  2.37018000E-02, -1.63892000E-05,
                       5.72572000E-09, -8.07296000E-13, -3.79949000E+04,
                       1.53584000E+01]),
                NASA([1150.00, 3000.00],
                     [ 6.47721000E+00,  1.24876000E-02, -5.35782000E-06,
                       1.03049000E-09, -7.24509000E-14, -3.92020000E+04,
                      -6.31953000E+00])),
        transport=gas_transport(geom='nonlinear',
                                diam=4.798,
                                well_depth=323.4,
                                dipole=2.3))

species(name='CHF2-CHF(66)',
        atoms='C:2 F:3 H:2',
        thermo=(NASA([298.00, 1250.00],
                     [ 1.81368000E+00,  3.27767000E-02, -3.24205000E-05,
                       1.68313000E-08, -3.60024000E-12, -5.60946000E+04,
                       1.85911000E+01]),
                NASA([1250.00, 3000.00],
                     [ 9.42456000E+00,  9.38455000E-03, -4.06950000E-06,
                       7.95489000E-10, -5.68744000E-14, -5.81660000E+04,
                      -2.03132000E+01])),
        transport=gas_transport(geom='nonlinear',
                                diam=4.798,
                                well_depth=323.4,
                                dipole=2.3))

species(name='CH2F-CF2(67)',
        atoms='C:2 F:3 H:2',
        thermo=(NASA([298.00, 1150.00],
                     [ 2.09008000E+00,  2.93901000E-02, -2.55533000E-05,
                       1.17108000E-08, -2.31129000E-12, -5.53731000E+04,
                       1.78136000E+01]),
                NASA([1150.00, 3000.00],
                     [ 8.87024000E+00,  1.00895000E-02, -4.39156000E-06,
                       8.57582000E-10, -6.11641000E-14, -5.72955000E+04,
                      -1.72490000E+01])),
        transport=gas_transport(geom='nonlinear',
                                diam=4.798,
                                well_depth=323.4,
                                dipole=2.3))

species(name='CHF2-CF2(68)',
        atoms='C:2 F:4 H:1',
        thermo=(NASA([298.00, 1250.00],
                     [ 3.03038000E+00,  3.13636000E-02, -2.95190000E-05,
                       1.39839000E-08, -2.71243000E-12, -8.20314000E+04,
                       1.40888000E+01]),
                NASA([1250.00, 3000.00],
                     [ 1.16275000E+01,  7.10202000E-03, -3.03218000E-06,
                       5.80310000E-10, -4.05959000E-14, -8.45173000E+04,
                      -3.04865000E+01])),
        transport=gas_transport(geom='nonlinear',
                                diam=4.85,
                                well_depth=323.4,
                                dipole=2.0))

species(name='CHFCF[Z](71)',
        atoms='C:2 F:2 H:1',
        thermo=(NASA([298.00, 1050.00],
                     [ 1.48306000E+00,  2.52896000E-02, -2.89899000E-05,
                       1.83569000E-08, -4.98659000E-12, -6.27504000E+03,
                       1.87682000E+01]),
                NASA([1050.00, 3000.00],
                     [ 7.72646000E+00,  5.00295000E-03, -1.86131000E-06,
                       3.11994000E-10, -1.95361000E-14, -7.90030000E+03,
                      -1.28643000E+01])),
        transport=gas_transport(geom='nonlinear',
                                diam=4.442,
                                well_depth=251.5,
                                dipole=1.4))

species(name='CF2CH(72)',
        atoms='C:2 F:2 H:1',
        thermo=(NASA([298.00, 1050.00],
                     [ 6.47126000E-01,  3.16596000E-02, -4.14529000E-05,
                       2.86094000E-08, -8.06098000E-12, -9.43854000E+03,
                       2.17994000E+01]),
                NASA([1050.00, 3000.00],
                     [ 7.41103000E+00,  6.48170000E-03, -3.06314000E-06,
                       6.25625000E-10, -4.55126000E-14, -1.10174000E+04,
                      -1.16171000E+01])),
        transport=gas_transport(geom='nonlinear',
                                diam=4.442,
                                well_depth=251.5,
                                dipole=1.4))

species(name='CHF2(81)',
        atoms='C:1 F:2 H:1',
        thermo=(NASA([298.00, 1150.00],
                     [ 1.83276000E+00,  1.34164000E-02, -9.54328000E-06,
                       2.95930000E-09, -2.79200000E-13, -3.08571000E+04,
                       1.67589000E+01]),
                NASA([1150.00, 3000.00],
                     [ 5.44828000E+00,  4.41165000E-03, -1.74189000E-06,
                       3.09200000E-10, -2.01762000E-14, -3.19610000E+04,
                      -2.29455000E+00])),
        transport=gas_transport(geom='nonlinear',
                                diam=4.123,
                                well_depth=262.0,
                                dipole=1.8))

species(name='CHF(88)',
        atoms='C:1 F:1 H:1',
        thermo=(NASA([298.00, 1300.00],
                     [ 3.34484000E+00,  2.35461000E-03,  1.93983000E-06,
                      -2.65251000E-09,  7.91169000E-13,  1.85140000E+04,
                       7.05286000E+00]),
                NASA([1300.00, 3000.00],
                     [ 4.48366000E+00,  1.74964000E-03, -5.04790000E-07,
                       1.08953000E-10, -9.87898000E-15,  1.79581000E+04,
                       2.89222000E-01])),
        transport=gas_transport(geom='nonlinear',
                                diam=4.123,
                                well_depth=262.0,
                                dipole=1.8))

species(name='CF2(89)',
        atoms='C:1 F:2',
        thermo=(NASA([298.00, 1300.00],
                     [ 2.28591000E+00,  1.07608000E-02, -1.05382000E-05,
                       4.89881000E-09, -8.86384000E-13, -2.35212000E+04,
                       1.31348000E+01]),
                NASA([1300.00, 3000.00],
                     [ 5.33121000E+00,  1.97748000E-03, -9.60248000E-07,
                       2.10704000E-10, -1.59540000E-14, -2.43714000E+04,
                      -2.56367000E+00])),
        transport=gas_transport(geom='nonlinear',
                                diam=3.977,
                                well_depth=108.0))

species(name='CH2F(91)',
        atoms='C:1 F:1 H:2',
        thermo=(NASA([298.00, 1300.00],
                     [ 2.11797000E+00,  1.02393000E-02, -6.62089000E-06,
                       2.37857000E-09, -3.89336000E-13, -4.95742000E+03,
                       1.33394000E+01]),
                NASA([1300.00, 3000.00],
                     [ 4.06013000E+00,  5.46642000E-03, -2.10949000E-06,
                       3.74458000E-10, -2.47400000E-14, -5.59277000E+03,
                       3.01379000E+00])),
        transport=gas_transport(geom='nonlinear',
                                diam=4.123,
                                well_depth=262.0,
                                dipole=1.8))

species(name='[O]OC(F)F(128)',