units(length='cm', time='s', quantity='mol', act_energy='kcal/mol')

ideal_gas(name='gas',
          elements="H D T C Ci O Oi N Ne Ar He Si S F Cl Br I X",
          species="""N2                Ne                CH2F2(1)
                     O2(2)             H2O(3)            OH(4)
                     H(5)              O(6)              H2(7)
                     HO2(10)           H2O2(11)          CO(12)
                     CO2(13)           HCO(14)           CH2O(19)
                     F(37)             HF(38)            CHF(40)
                     CHF3(41)          CF2(42)           CF3(44)
                     CHFO(46)          CF2O(48)          CF(49)
                     CFO(50)           CHFCF2(54)        CH2CF2(56)
                     C2HF(57)          CF2CF2(60)        CHF2-CH2(63)
                     CH3-CF2(64)       CHF2-CHF(66)      CH2F-CF2(67)
                     CHF2-CF2(68)      HCCO(68)          C2H2(70)
                     CHFCF[Z](71)      CF2CH(72)         CH2CO(75)
                     CHF2(81)          CHF(86)           CF2(87)
                     CH2F(89)          FC1OO1(129)       [O]C([O])F(131)
                     CHO2(135)         CFO2(136)         CF2O2(144)
                     [O]OC(F)F(163)    FC(F)C(F)F(164)   [O]C(F)F(170)
                     [O]O[C](F)F(171)  O2(177)           F[C]C(F)F(180)
                     O[C](F)F(232)     C2F4O2(248)       FC1OC1(F)F(275)
                     F[C]C(F)F(316)    C2HFO(390)        C2HF4O2(419)
                     CF3O2(433)        C2HF3O(474)       C2HF(510)
                     C2HFO2(557)       C2H2F3O2(649)     C2HF2O3(898)
                     FC1(F)OO1(924)    C2HF2O(1009)      C2H2F3(1097)
                     FC1(F)CO1(1188)   C2H3F2O2(1290)    [C]#CF(2151)
                     C2HF(2152)        C2HFO3(2756)""",
          reactions='all',
          transport='Mix',
          initial_state=state(temperature=300.0, pressure=OneAtm))

#-------------------------------------------------------------------------------
# Element data
#-------------------------------------------------------------------------------

element(symbol='Ci', atomic_mass=13.003)
element(symbol='D', atomic_mass=2.014)
element(symbol='Oi', atomic_mass=17.999)
element(symbol='T', atomic_mass=3.016)
element(symbol='X', atomic_mass=195.083)
#-------------------------------------------------------------------------------
# Species data
#-------------------------------------------------------------------------------

species(name='N2',
        atoms='N:2',
        thermo=(NASA([200.00, 1000.00],
                     [ 3.53101000E+00, -1.23661000E-04, -5.02999000E-07,
                       2.43531000E-09, -1.40881000E-12, -1.04698000E+03,
                       2.96747000E+00]),
                NASA([1000.00, 6000.00],
                     [ 2.95258000E+00,  1.39690000E-03, -4.92632000E-07,
                       7.86010000E-11, -4.60755000E-15, -9.23949000E+02,
                       5.87189000E+00])),
        transport=gas_transport(geom='linear',
                                diam=3.621,
                                well_depth=97.53,
                                polar=1.76,
                                rot_relax=4.0))

species(name='Ne',
        atoms='Ne:1',
        thermo=(NASA([200.00, 1000.00],
                     [ 2.50000000E+00,  0.00000000E+00,  0.00000000E+00,
                       0.00000000E+00,  0.00000000E+00, -7.45375000E+02,
                       3.35532000E+00]),
                NASA([1000.00, 6000.00],
                     [ 2.50000000E+00,  0.00000000E+00,  0.00000000E+00,
                       0.00000000E+00,  0.00000000E+00, -7.45375000E+02,
                       3.35532000E+00])),
        transport=gas_transport(geom='atom',
                                diam=3.758,
                                well_depth=148.6))

species(name='CH2F2(1)',
        atoms='C:1 F:2 H:2',
        thermo=(NASA([10.00, 788.98],
                     [ 4.06909000E+00, -4.54455000E-03,  4.03365000E-05,
                      -4.87809000E-08,  1.90230000E-11, -5.55551000E+04,
                       6.40435000E+00]),
                NASA([788.98, 3000.00],
                     [ 1.30655000E+00,  1.54345000E-02, -9.00408000E-06,
                       2.50681000E-09, -2.68973000E-13, -5.53051000E+04,
                       1.78990000E+01])),
        transport=gas_transport(geom='nonlinear',
                                diam=4.123,
                                well_depth=262.0,
                                dipole=1.8))

species(name='O2(2)',
        atoms='O:2',
        thermo=(NASA([100.00, 1074.55],
                     [ 3.53732243E+00, -1.21571655E-03,  5.31620279E-06,
                      -4.89446465E-09,  1.45846271E-12, -1.03858849E+03,
                       4.68368180E+00]),
                NASA([1074.55, 5000.00],
                     [ 3.15382077E+00,  1.67804376E-03, -7.69974269E-07,
                       1.51275470E-10, -1.08782420E-14, -1.04081727E+03,
                       6.16755852E+00])),
        transport=gas_transport(geom='linear',
                                diam=3.458,
                                well_depth=107.4,
                                polar=1.6,
                                rot_relax=3.8))

species(name='H2O(3)',
        atoms='H:2 O:1',
        thermo=(NASA([100.00, 1130.24],
                     [ 4.05763583E+00, -7.87935820E-04,  2.90877481E-06,
                      -1.47518847E-09,  2.12842891E-13, -3.02815866E+04,
                      -3.11364048E-01]),
                NASA([1130.24, 5000.00],
                     [ 2.84325052E+00,  2.75108536E-03, -7.81031435E-07,
                       1.07243628E-10, -5.79392151E-15, -2.99586128E+04,
                       5.91041953E+00])),
        transport=gas_transport(geom='nonlinear',
                                diam=2.605,
                                well_depth=572.402,
                                dipole=1.844,
                                rot_relax=4.0))

species(name='OH(4)',
        atoms='H:1 O:1',
        thermo=(NASA([100.00, 1145.76],
                     [ 3.51456840E+00,  2.92733461E-05, -5.32150328E-07,
                       1.01947489E-09, -3.85939283E-13,  3.41425418E+03,
                       2.10434754E+00]),
                NASA([1145.76, 5000.00],
                     [ 3.07193719E+00,  6.04019927E-04, -1.39806418E-08,
                      -2.13440701E-11,  2.48061276E-15,  3.57938795E+03,
                       4.57801500E+00])),
        transport=gas_transport(geom='linear',
                                diam=2.75,
                                well_depth=80.0))

species(name='H(5)',
        atoms='H:1',
        thermo=(NASA([100.00, 4230.24],
                     [ 2.50000000E+00,  9.05028667E-14, -1.20494648E-16,
                       5.23431737E-20, -6.99813850E-24,  2.54742178E+04,
                      -4.44972896E-01]),
                NASA([4230.24, 5000.00],
                     [ 2.49999605E+00,  3.58763060E-09, -1.22015473E-12,
                       1.84118067E-16, -1.04000002E-20,  2.54742212E+04,
                      -4.44947992E-01])),
        transport=gas_transport(geom='atom',
                                diam=2.05,
                                well_depth=145.0))

species(name='O(6)',
        atoms='O:1',
        thermo=(NASA([100.00, 4230.24],
                     [ 2.50000000E+00,  9.05028667E-14, -1.20494648E-16,
                       5.23431737E-20, -6.99813850E-24,  2.92302441E+04,
                       5.12616427E+00]),
                NASA([4230.24, 5000.00],
                     [ 2.49999605E+00,  3.58763060E-09, -1.22015473E-12,
                       1.84118067E-16, -1.04000002E-20,  2.92302476E+04,
                       5.12618918E+00])),
        transport=gas_transport(geom='atom',
                                diam=2.75,
                                well_depth=80.0))

species(name='H2(7)',
        atoms='H:2',
        thermo=(NASA([100.00, 1959.08],
                     [ 3.43536431E+00,  2.12708634E-04, -2.78621143E-07,
                       3.40264107E-10, -7.76024422E-14, -1.03135985E+03,
                      -3.90841808E+00]),
                NASA([1959.08, 5000.00],
                     [ 2.78814513E+00,  5.87667842E-04,  1.58997823E-07,
                      -5.52713751E-11,  4.34292562E-15, -5.96132053E+02,
                       1.12855390E-01])),
        transport=gas_transport(geom='linear',
                                diam=2.92,
                                well_depth=38.0,
                                polar=0.79,
                                rot_relax=280.0))

species(name='HO2(10)',
        atoms='H:1 O:2',
        thermo=(NASA([200.00, 1000.00],
                     [ 4.30180000E+00, -4.74912000E-03,  2.11583000E-05,
                      -2.42764000E-08,  9.29225000E-12,  2.64018000E+02,
                       3.71666000E+00]),
                NASA([1000.00, 5000.00],
                     [ 4.17229000E+00,  1.88118000E-03, -3.46277000E-07,
                       1.94658000E-11,  1.76257000E-16,  3.10207000E+01,
                       2.95768000E+00])),
        transport=gas_transport(geom='nonlinear',
                                diam=3.458,
                                well_depth=107.4,
                                rot_relax=1.0))

species(name='H2O2(11)',
        atoms='H:2 O:2',
        thermo=(NASA([200.00, 1000.00],
                     [ 4.31515000E+00, -8.47391000E-04,  1.76404000E-05,
                      -2.26763000E-08,  9.08950000E-12, -1.77067000E+04,
                       3.27373000E+00]),
                NASA([1000.00, 6000.00],
                     [ 4.57977000E+00,  4.05326000E-03, -1.29845000E-06,
                       1.98211000E-10, -1.13969000E-14, -1.80072000E+04,
                       6.64971000E-01])),
        transport=gas_transport(geom='nonlinear',
                                diam=3.458,
                                well_depth=107.4,
                                rot_relax=3.8))

species(name='CO(12)',
        atoms='C:1 O:1',
        thermo=(NASA([100.00, 1571.64],
                     [ 3.56837990E+00, -8.52124792E-04,  2.48917582E-06,
                      -1.56330849E-09,  3.13594738E-13, -1.42842549E+04,
                       3.57912211E+00]),
                NASA([1571.64, 5000.00],
                     [ 2.91306747E+00,  1.64657731E-03, -6.88614547E-07,
                       1.21037299E-10, -7.84017568E-15, -1.41808850E+04,
                       6.71045295E+00])),
        transport=gas_transport(geom='linear',
                                diam=3.65,
                                well_depth=98.1,
                                polar=1.95,
                                rot_relax=1.8))

species(name='CO2(13)',
        atoms='C:1 O:2',
        thermo=(NASA([200.00, 1000.00],
                     [ 2.35681000E+00,  8.98413000E-03, -7.12206000E-06,
                       2.45730000E-09, -1.42885000E-13, -4.83720000E+04,
                       9.90090000E+00]),
                NASA([1000.00, 6000.00],
                     [ 4.63651000E+00,  2.74146000E-03, -9.95898000E-07,
                       1.60387000E-10, -9.16199000E-15, -4.90249000E+04,
                      -1.93490000E+00])),
        transport=gas_transport(geom='linear',
                                diam=3.763,
                                well_depth=244.001,
                                polar=2.65,
                                rot_relax=2.1))

species(name='HCO(14)',
        atoms='C:1 H:1 O:1',
        thermo=(NASA([200.00, 1000.00],
                     [ 4.23755000E+00, -3.32075000E-03,  1.40030000E-05,
                      -1.34240000E-08,  4.37416000E-12,  3.87241000E+03,
                       3.30835000E+00]),
                NASA([1000.00, 6000.00],
                     [ 3.92002000E+00,  2.52279000E-03, -6.71004000E-07,
                       1.05616000E-10, -7.43798000E-15,  3.65343000E+03,
                       3.58077000E+00])),
        transport=gas_transport(geom='nonlinear',
                                diam=3.59,
                                well_depth=498.002))

species(name='CH2O(19)',
        atoms='C:1 H:2 O:1',
        thermo=(NASA([200.00, 1000.00],
                     [ 4.79372000E+00, -9.90833000E-03,  3.73220000E-05,
                      -3.79285000E-08,  1.31773000E-11, -1.43792000E+04,
                       6.02798000E-01]),
                NASA([1000.00, 6000.00],
                     [ 3.16953000E+00,  6.19321000E-03, -2.25056000E-06,
                       3.65976000E-10, -2.20149000E-14, -1.45487000E+04,
                       6.04208000E+00])),
        transport=gas_transport(geom='nonlinear',
                                diam=3.59,
                                well_depth=498.002,
                                rot_relax=2.0))

species(name='F(37)',
        atoms='F:1',
        thermo=(NASA([298.00, 1400.00],
                     [ 2.90371000E+00, -6.35296000E-04,  2.64735000E-07,
                       7.69063000E-11, -5.45254000E-14,  8.67227000E+03,
                       2.70828000E+00]),
                NASA([1400.00, 3000.00],
                     [ 2.65117000E+00, -1.40130000E-04,  5.19236000E-08,
                      -8.84954000E-12,  5.90280000E-16,  8.75829000E+03,
                       4.07857000E+00])),
        transport=gas_transport(geom='atom',
                                diam=2.75,
                                well_depth=80.0))

species(name='HF(38)',
        atoms='F:1 H:1',
        thermo=(NASA([298.00, 1250.00],
                     [ 3.43657000E+00,  4.86021000E-04, -1.25240000E-06,
                       1.36475000E-09, -4.09574000E-13, -3.38001000E+04,
                       1.20682000E+00]),
                NASA([1250.00, 3000.00],
                     [ 2.78130000E+00,  1.03959000E-03, -2.41735000E-07,
                       2.68416000E-11, -1.09766000E-15, -3.35042000E+04,
                       5.01970000E+00])),
        transport=gas_transport(geom='linear',
                                diam=3.148,
                                well_depth=330.001,
                                dipole=1.92,
                                polar=2.46,
                                rot_relax=1.0))

species(name='CHF(40)',
        atoms='C:1 F:1 H:1',
        thermo=(NASA([100.00, 1056.12],
                     [ 3.93332923E+00, -2.63359832E-04,  8.89186649E-06,
                      -1.03032148E-08,  3.50809268E-12,  2.58537235E+04,
                       4.33728892E+00]),
                NASA([1056.12, 5000.00],
                     [ 4.72426327E+00,  1.64131185E-03, -7.73114445E-07,
                       1.90987393E-10, -1.59925335E-14,  2.54133699E+04,
                      -8.15527545E-01])),
        transport=gas_transport(geom='nonlinear',
                                diam=4.332,
                                well_depth=288.989))

species(name='CHF3(41)',
        atoms='C:1 F:3 H:1',
        thermo=(NASA([10.00, 615.11],
                     [ 4.06655000E+00, -5.69699000E-03,  7.11567000E-05,
                      -1.16193000E-07,  6.06504000E-11, -8.51503000E+04,
                       7.48265000E+00]),
                NASA([615.11, 3000.00],
                     [ 2.45498000E+00,  1.63704000E-02, -1.09138000E-05,
                       3.38161000E-09, -3.95687000E-13, -8.51713000E+04,
                       1.26925000E+01])),
        transport=gas_transport(geom='nonlinear',
                                diam=4.123,
                                well_depth=262.0,
                                dipole=1.8))

species(name='CF2(42)',
        atoms='C:1 F:2',
        thermo=(NASA([298.00, 1300.00],
                     [ 2.28591000E+00,  1.07608000E-02, -1.05382000E-05,
                       4.89881000E-09, -8.86384000E-13,  4.21669000E+03,
                       1.31348000E+01]),
                NASA([1300.00, 3000.00],
                     [ 5.33121000E+00,  1.97748000E-03, -9.60248000E-07,
                       2.10704000E-10, -1.59540000E-14,  3.36649000E+03,
                      -2.56367000E+00])),
        transport=gas_transport(geom='nonlinear',
                                diam=4.226,
                                well_depth=289.295))

species(name='CF3(44)',
        atoms='C:1 F:3',
        thermo=(NASA([10.00, 570.23],
                     [ 4.05587000E+00, -5.49380000E-03,  7.30062000E-05,
                      -1.34908000E-07,  7.85700000E-11, -5.81130000E+04,
                       8.13986000E+00]),
                NASA([570.23, 3000.00],
                     [ 3.53924000E+00,  1.18582000E-02, -8.75006000E-06,
                       2.89362000E-09, -3.54041000E-13, -5.82773000E+04,
                       8.38507000E+00])),
        transport=gas_transport(geom='nonlinear',
                                diam=4.32,
                                well_depth=121.0))

species(name='CHFO(46)',
        atoms='C:1 F:1 H:1 O:1',
        thermo=(NASA([10.00, 745.32],
                     [ 4.05425000E+00, -3.75329000E-03,  3.18277000E-05,
                      -4.07297000E-08,  1.68956000E-11, -4.74230000E+04,
                       6.56837000E+00]),
                NASA([745.32, 3000.00],
                     [ 2.27714000E+00,  1.04751000E-02, -6.24845000E-06,
                       1.77292000E-09, -1.93455000E-13, -4.72884000E+04,
                       1.37455000E+01])),
        transport=gas_transport(geom='nonlinear',
                                diam=4.906,
                                well_depth=350.5))

species(name='CF2O(48)',
        atoms='C:1 F:2 O:1',
        thermo=(NASA([10.00, 584.63],
                     [ 4.06775000E+00, -6.14966000E-03,  6.73615000E-05,
                      -1.17623000E-07,  6.56735000E-11, -7.44006000E+04,
                       7.68563000E+00]),
                NASA([584.63, 3000.00],
                     [ 3.15981000E+00,  1.16963000E-02, -8.27581000E-06,
                       2.66621000E-09, -3.20585000E-13, -7.44933000E+04,
                       9.87819000E+00])),
        transport=gas_transport(geom='nonlinear',
                                diam=4.906,
                                well_depth=350.5))

species(name='CF(49)',
        atoms='C:1 F:1',
        thermo=(NASA([298.00, 1100.00],
                     [ 3.35384000E+00,  2.09097000E-04,  3.20774000E-06,
                      -3.66875000E-09,  1.19863000E-12,  2.86456000E+04,
                       6.33463000E+00]),
                NASA([1100.00, 3000.00],
                     [ 3.66497000E+00,  9.73681000E-04, -4.10982000E-07,
                       8.00629000E-11, -5.64981000E-15,  2.84621000E+04,
                       4.28163000E+00])),
        transport=gas_transport(geom='linear',
                                diam=3.635,
                                well_depth=94.2))

species(name='CFO(50)',
        atoms='C:1 F:1 O:1',
        thermo=(NASA([10.00, 668.19],
                     [ 4.02994000E+00, -2.08576000E-03,  2.20825000E-05,
                      -3.30628000E-08,  1.58410000E-11, -2.28950000E+04,
                       6.85532000E+00]),
                NASA([668.19, 3000.00],
                     [ 3.39014000E+00,  5.54951000E-03, -3.60000000E-06,
                       1.08417000E-09, -1.23809000E-13, -2.28945000E+04,
                       9.04838000E+00])),
        transport=gas_transport(geom='nonlinear',
                                diam=4.0,
                                well_depth=860.0))

species(name='CHFCF2(54)',
        atoms='C:2 F:3 H:1',
        thermo=(NASA([10.00, 540.18],
                     [ 3.93201000E+00,  4.13887000E-03,  7.03233000E-05,
                      -1.49827000E-07,  9.42397000E-11, -6.15092000E+04,
                       9.50863000E+00]),
                NASA([540.18, 3000.00],
                     [ 3.82032000E+00,  1.97002000E-02, -1.38027000E-05,
                       4.49179000E-09, -5.49698000E-13, -6.17121000E+04,
                       7.98890000E+00])),
        transport=gas_transport(geom='nonlinear',
                                diam=4.442,
                                well_depth=251.5,
                                dipole=1.4))

species(name='CH2CF2(56)',
        atoms='C:2 F:2 H:2',
        thermo=(NASA([10.00, 534.29],
                     [ 4.10281000E+00, -1.01072000E-02,  1.21983000E-04,
                      -2.28108000E-07,  1.37933000E-10, -4.34906000E+04,
                       7.77929000E+00]),
                NASA([534.29, 3000.00],
                     [ 2.52167000E+00,  1.98841000E-02, -1.31824000E-05,
                       4.13929000E-09, -4.93215000E-13, -4.35808000E+04,
                       1.19914000E+01])),
        transport=gas_transport(geom='nonlinear',
                                diam=4.442,
                                well_depth=251.5,
                                dipole=1.4))

species(name='C2HF(57)',
        atoms='C:2 F:1 H:1',
        thermo=(NASA([10.00, 555.75],
                     [ 3.44980000E+00,  3.02630000E-03,  3.99146000E-05,
                      -8.96150000E-08,  5.74336000E-11,  1.14686000E+04,
                       5.90915000E+00]),
                NASA([555.75, 3000.00],
                     [ 4.23833000E+00,  8.67140000E-03, -5.87678000E-06,
                       1.96876000E-09, -2.53031000E-13,  1.12062000E+04,
                       9.95297000E-01])),
        transport=gas_transport(geom='linear',
                                diam=4.25,
                                well_depth=225.0,
                                dipole=1.0))

species(name='CF2CF2(60)',
        atoms='C:2 F:4',
        thermo=(NASA([10.00, 470.33],
                     [ 3.86796000E+00,  8.96674000E-03,  9.20781000E-05,
                      -2.50451000E-07,  1.90637000E-10, -8.28068000E+04,
                       9.05323000E+00]),
                NASA([470.33, 3000.00],
                     [ 5.38595000E+00,  1.91802000E-02, -1.42425000E-05,
                       4.78608000E-09, -5.97116000E-13, -8.32053000E+04,
                       1.55967000E-01])),
        transport=gas_transport(geom='nonlinear',
                                diam=4.647,
                                well_depth=254.2))

species(name='CHF2-CH2(63)',
        atoms='C:2 F:2 H:3',
        thermo=(NASA([10.00, 530.26],
                     [ 3.95374000E+00,  2.80607000E-03,  6.87135000E-05,
                      -1.35100000E-07,  8.18166000E-11, -3.61481000E+04,
                       9.20378000E+00]),
                NASA([530.26, 3000.00],
                     [ 2.67787000E+00,  2.23019000E-02, -1.43606000E-05,
                       4.45233000E-09, -5.29912000E-13, -3.61516000E+04,
                       1.32411000E+01])),
        transport=gas_transport(geom='nonlinear',
                                diam=4.798,
                                well_depth=323.4,
                                dipole=2.3))

species(name='CH3-CF2(64)',
        atoms='C:2 F:2 H:3',
        thermo=(NASA([10.00, 267.68],
                     [ 3.97026000E+00,  2.48557000E-03,  9.36596000E-05,
                      -2.62618000E-07,  2.48555000E-10, -3.79476000E+04,
                       9.23011000E+00]),
                NASA([267.68, 3000.00],
                     [ 2.69162000E+00,  2.15920000E-02, -1.34044000E-05,
                       4.02185000E-09, -4.66099000E-13, -3.78791000E+04,
                       1.37136000E+01])),
        transport=gas_transport(geom='nonlinear',
                                diam=4.798,
                                well_depth=323.4,
                                dipole=2.3))

species(name='CHF2-CHF(66)',
        atoms='C:2 F:3 H:2',
        thermo=(NASA([10.00, 1633.48],
                     [ 4.03194000E+00,  1.98962000E-02, -1.06494000E-05,
                       1.96763000E-09,  3.06708000E-14, -5.79352000E+04,
                       1.03725000E+01]),
                NASA([1633.48, 3000.00],
                     [ 1.50609000E+01, -8.60555000E-04,  2.67159000E-06,
                      -1.12649000E-09,  1.45700000E-13, -6.23722000E+04,
                      -5.08003000E+01])),
        transport=gas_transport(geom='nonlinear',
                                diam=4.798,
                                well_depth=323.4,
                                dipole=2.3))

species(name='CH2F-CF2(67)',
        atoms='C:2 F:3 H:2',
        thermo=(NASA([10.00, 143.65],
                     [ 3.91923000E+00,  1.06888000E-02,  3.02084000E-04,
                      -2.44345000E-06,  5.97346000E-09, -5.80222000E+04,
                       9.23031000E+00]),
                NASA([143.65, 3000.00],
                     [ 4.29616000E+00,  2.05251000E-02, -1.29366000E-05,
                       3.84020000E-09, -4.35292000E-13, -5.80540000E+04,
                       7.41304000E+00])),
        transport=gas_transport(geom='nonlinear',
                                diam=4.798,
                                well_depth=323.4,
                                dipole=2.3))

species(name='CHF2-CF2(68)',
        atoms='C:2 F:4 H:1',
        thermo=(NASA([10.00, 312.95],
                     [ 3.65487000E+00,  3.77730000E-02, -1.24349000E-04,
                       3.31660000E-07, -3.40885000E-10, -8.27326000E+04,
                       1.19893000E+01]),
                NASA([312.95, 3000.00],
                     [ 3.84306000E+00,  2.55446000E-02, -1.86543000E-05,
                       6.20308000E-09, -7.68055000E-13, -8.26963000E+04,
                       1.20686000E+01])),
        transport=gas_transport(geom='nonlinear',
                                diam=4.85,
                                well_depth=323.4,
                                dipole=2.0))

species(name='HCCO(68)',
        atoms='C:2 H:1 O:1',
        thermo=(NASA([200.00, 1000.00],
                     [ 1.87608000E+00,  2.21205000E-02, -3.58869000E-05,
                       3.05403000E-08, -1.01281000E-11,  2.01634000E+04,
                       1.36968000E+01]),
                NASA([1000.00, 6000.00],
                     [ 5.91479000E+00,  3.71409000E-03, -1.30137000E-06,
                       2.06473000E-10, -1.21477000E-14,  1.93596000E+04,
                      -5.50567000E+00])),
        transport=gas_transport(geom='nonlinear',
                                diam=2.5,
                                well_depth=150.001,
                                rot_relax=1.0))

species(name='C2H2(70)',
        atoms='C:2 H:2',
        thermo=(NASA([200.00, 1000.00],
                     [ 8.08680000E-01,  2.33616000E-02, -3.55172000E-05,
                       2.80153000E-08, -8.50075000E-12,  2.64290000E+04,
                       1.39397000E+01]),
                NASA([1000.00, 6000.00],
                     [ 4.65878000E+00,  4.88397000E-03, -1.60829000E-06,
                       2.46975000E-10, -1.38606000E-14,  2.57594000E+04,
                      -3.99838000E+00])),
        transport=gas_transport(geom='linear',
                                diam=4.1,
                                well_depth=209.001,
                                rot_relax=2.5))

species(name='CHFCF[Z](71)',
        atoms='C:2 F:2 H:1',
        thermo=(NASA([10.00, 529.92],
                     [ 3.96440000E+00,  2.17073000E-03,  4.76141000E-05,
                      -9.63411000E-08,  5.92621000E-11, -7.03125000E+03,
                       9.13330000E+00]),
                NASA([529.92, 3000.00],
                     [ 3.26037000E+00,  1.50322000E-02, -1.01557000E-05,
                       3.21347000E-09, -3.84694000E-13, -7.06261000E+03,
                       1.10829000E+01])),
        transport=gas_transport(geom='nonlinear',
                                diam=4.442,
                                well_depth=251.5,
                                dipole=1.4))

species(name='CF2CH(72)',
        atoms='C:2 F:2 H:1',
        thermo=(NASA([10.00, 611.19],
                     [ 3.95511000E+00,  2.51604000E-03,  4.75146000E-05,
                      -8.97685000E-08,  4.98372000E-11, -1.10652000E+04,
                       8.58309000E+00]),
                NASA([611.19, 3000.00],
                     [ 3.64850000E+00,  1.55109000E-02, -1.13452000E-05,
                       3.84899000E-09, -4.87703000E-13, -1.12330000E+04,
                       8.23240000E+00])),
        transport=gas_transport(geom='nonlinear',
                                diam=4.442,
                                well_depth=251.5,
                                dipole=1.4))

species(name='CH2CO(75)',
        atoms='C:2 H:2 O:1',
        thermo=(NASA([200.00, 1000.00],
                     [ 2.13241000E+00,  1.81319000E-02, -1.74093000E-05,
                       9.35336000E-09, -2.01725000E-12, -7.14809000E+03,
                       1.33808000E+01]),
                NASA([1000.00, 6000.00],
                     [ 5.75871000E+00,  6.35124000E-03, -2.25955000E-06,
                       3.62322000E-10, -2.15856000E-14, -8.08533000E+03,
                      -4.96490000E+00])),
        transport=gas_transport(geom='nonlinear',
                                diam=3.97,
                                well_depth=436.001,
                                rot_relax=2.0))

species(name='CHF2(81)',
        atoms='C:1 F:2 H:1',
        thermo=(NASA([10.00, 697.14],
                     [ 4.05476000E+00, -4.05670000E-03,  3.90133000E-05,
                      -5.51349000E-08,  2.50461000E-11, -3.08752000E+04,
                       7.58714000E+00]),
                NASA([697.14, 3000.00],
                     [ 2.58942000E+00,  1.08145000E-02, -6.89144000E-06,
                       2.06262000E-09, -2.34597000E-13, -3.08279000E+04,
                       1.30014000E+01])),
        transport=gas_transport(geom='nonlinear',
                                diam=4.123,