units(length='cm', time='s', quantity='mol', act_energy='kcal/mol')

ideal_gas(name='gas',
          elements="H D T C Ci O Oi N Ne Ar He Si S F Cl Br I X",
          species="""N2                Ne                C3H2F4(1)
                     OH(2)             O2(3)             H2O(4)
                     CH4(5)            F(6)              CH3F(7)
                     H(8)              CH2F2(9)          CHF3(10)
                     CF4(11)           CH2(12)           CHF(13)
                     CH(14)            HF(15)            CF2(16)
                     CF(17)            O(18)             FCO(19)
                     CO(20)            CHF2(21)          CF2O(22)
                     CO2(23)           CFOOH(24)         CHF2OO(25)
                     CH2F(26)          CH3(27)           H2(28)
                     CFOH(29)          CHFO(30)          CHF2O(31)
                     CHF2OH(32)        HO2(33)           CH3CHF(34)
                     CHF2CH2(35)       CH3CF2(36)        CH3CF(37)
                     CH2CHF(38)        CH3CHF2(39)       CH2FCHF2(40)
                     CH2FCF(41)        CHFCHF(42)        CH2CF2(43)
                     CHF2CHF(44)       CHF2CHF2(45)      CHF2CF2(46)
                     CHF2CF(47)        CHFCF2(48)        Ar(49)
                     He(50)            H2O2(51)          HCO(52)
                     C(T)(53)          CH2O(54)          HCCO(55)
                     C2H(56)           C2H2(57)          H2CC(58)
                     CH2(S)(59)        CH3OH(60)         CH3O(61)
                     CH2CO(62)         C2H3(63)          C2H4(64)
                     C2H6(65)          C2H5(66)          CH2OH(67)
                     CH3CO(68)         CH2CHO(69)        CH3CHO(70)
                     CHF-2(71)         CF2-2(72)         CF3(73)
                     CF3O(74)          CF3-CHF(77)       C2HF(78)
                     CF3COF(91)        CH2CFO(93)        CF3CCH(95)
                     E-CHCFCF3(96)     CHOCFCF3(97)      CH3CFCF3(98)
                     C3H2F4(136)       C3H2F3(137)       C3H2F4(139)
                     C3H2F4(140)       C3H2F2(141)       C6H4F8(144)
                     C3H2F5(147)       C3H2F5(148)       C3H2F4O2(150)
                     C3H2F4(153)       C3H2F4(156)       C3HF4(159)
                     C3H2F4(161)       C2H2F3(165)       O2(170)
                     C3H2F4O(171)      C3H2F4O2(173)     C3H2F4O(174)
                     C3H2F4(183)       C3H2F4(187)       C6H3F8(199)
                     C3H3F3(248)       C3H2F5O2(256)     C3H2F3O2(257)
                     C3H2F3O2(258)     C1OO1(273)        C3H2F4O(291)
                     C3HF4O(297)       C3H2F4(317)       C3H2F3O2(454)
                     [O]OCF(529)       C3H2F5O2(531)     C4H2F7(578)
                     CF3O2(579)        C3H2F4(583)       C3HF4(584)
                     C4H2F7(602)       C3HF3O(612)       C3H3F4O2(626)
                     C3H3F4O2(628)     C3H3F4O(648)      [O]C[O](675)
                     CHO2(679)         C2HF3(818)        C3HF3(887)
                     C2HF4O2(957)      C3H3F4O(1032)     C3H2F4O(1037)
                     C4H2F7O2(1048)    CFO2(1138)        C2H2O(1187)
                     C6H3F8(1387)      C3F4(1389)        C3H2F4(1401)
                     C6H3F8(1420)      C6H3F8O2(1434)    C6H3F8O2(1480)
                     C6H3F8O2(1489)    C6H3F8O2(1490)    C3HF4O(1544)
                     C2HFO(1549)       C2HF2O(1554)      C3HF4O3(1570)
                     C3HF4O2(1598)     C3HF4O2(1599)     C6H3F8O4(1640)
                     C2H2FO3(1684)     C3HF4O2(1878)     C2HF(1925)
                     C3HF4O3(2198)     C3HF4O3(2204)     C3HF4O3(2267)
                     [O]C([O])F(2475)  C3H3F4O(2533)     C6H3F8O2(2659)
                     C6H3F8O2(2660)    C2H3FO(2759)      C3H3F4O3(2873)
                     FC1OO1(3703)      C3H2F4O(4414)     C3HF4O2(4801)
                     C3HF3O(6231)      C2HF4O2(6269)     C3HF3O(7336)
                     C3HF3O(7345)      C6H3F8O4(10220)   C6H3F8O4(10413)
                     C4H3F4O3(10446)   C4H2F4O2(10472)   C4H3F4O(10480)
                     C4H3F4O3(10490)   C3HF4O2(12401)    C2HF2O3(12698)
                     C2H2F2O2(15030)   C2H2F2O2(16676)   C2HF3O2(22082)""",
          reactions='all',
          transport='Mix',
          initial_state=state(temperature=300.0, pressure=OneAtm))

#-------------------------------------------------------------------------------
# Element data
#-------------------------------------------------------------------------------

element(symbol='Ci', atomic_mass=13.003)
element(symbol='D', atomic_mass=2.014)
element(symbol='Oi', atomic_mass=17.999)
element(symbol='T', atomic_mass=3.016)
element(symbol='X', atomic_mass=195.083)
#-------------------------------------------------------------------------------
# Species data
#-------------------------------------------------------------------------------

species(name='N2',
        atoms='N:2',
        thermo=(NASA([200.00, 1000.00],
                     [ 3.53101000E+00, -1.23661000E-04, -5.02999000E-07,
                       2.43531000E-09, -1.40881000E-12, -1.04698000E+03,
                       2.96747000E+00]),
                NASA([1000.00, 6000.00],
                     [ 2.95258000E+00,  1.39690000E-03, -4.92632000E-07,
                       7.86010000E-11, -4.60755000E-15, -9.23949000E+02,
                       5.87189000E+00])),
        transport=gas_transport(geom='linear',
                                diam=3.621,
                                well_depth=97.53,
                                polar=1.76,
                                rot_relax=4.0))

species(name='Ne',
        atoms='Ne:1',
        thermo=(NASA([200.00, 1000.00],
                     [ 2.50000000E+00,  0.00000000E+00,  0.00000000E+00,
                       0.00000000E+00,  0.00000000E+00, -7.45375000E+02,
                       3.35532000E+00]),
                NASA([1000.00, 6000.00],
                     [ 2.50000000E+00,  0.00000000E+00,  0.00000000E+00,
                       0.00000000E+00,  0.00000000E+00, -7.45375000E+02,
                       3.35532000E+00])),
        transport=gas_transport(geom='atom',
                                diam=3.758,
                                well_depth=148.6))

species(name='C3H2F4(1)',
        atoms='C:3 F:4 H:2',
        thermo=(NASA([200.00, 1000.00],
                     [ 1.00153000E+00,  4.98008000E-02, -4.61878000E-05,
                       1.64792000E-08, -3.13156000E-13, -9.99487000E+04,
                       2.07747000E+01]),
                NASA([1000.00, 6000.00],
                     [ 1.43110000E+01,  9.44785000E-03, -3.52268000E-06,
                       5.79392000E-10, -3.50621000E-14, -1.03384000E+05,
                      -4.69130000E+01])),
        transport=gas_transport(geom='nonlinear',
                                diam=4.9,
                                well_depth=371.0))

species(name='OH(2)',
        atoms='H:1 O:1',
        thermo=(NASA([100.00, 1145.76],
                     [ 3.51456839E+00,  2.92734385E-05, -5.32150627E-07,
                       1.01947524E-09, -3.85939419E-13,  3.41425418E+03,
                       2.10434757E+00]),
                NASA([1145.76, 5000.00],
                     [ 3.07193725E+00,  6.04019830E-04, -1.39805878E-08,
                      -2.13440825E-11,  2.48061376E-15,  3.57938792E+03,
                       4.57801466E+00])),
        transport=gas_transport(geom='linear',
                                diam=2.75,
                                well_depth=80.0))

species(name='O2(3)',
        atoms='O:2',
        thermo=(NASA([100.00, 1074.56],
                     [ 3.53732180E+00, -1.21570917E-03,  5.31617782E-06,
                      -4.89443369E-09,  1.45845021E-12, -1.03858846E+03,
                       4.68368410E+00]),
                NASA([1074.56, 5000.00],
                     [ 3.15382431E+00,  1.67803791E-03, -7.69970964E-07,
                       1.51274701E-10, -1.08781789E-14, -1.04081881E+03,
                       6.16753849E+00])),
        transport=gas_transport(geom='linear',
                                diam=3.458,
                                well_depth=107.4,
                                polar=1.6,
                                rot_relax=3.8))

species(name='H2O(4)',
        atoms='H:2 O:1',
        thermo=(NASA([100.00, 1130.24],
                     [ 4.05763586E+00, -7.87936112E-04,  2.90877576E-06,
                      -1.47518961E-09,  2.12843333E-13, -3.02815866E+04,
                      -3.11364142E-01]),
                NASA([1130.24, 5000.00],
                     [ 2.84325034E+00,  2.75108564E-03, -7.81031596E-07,
                       1.07243665E-10, -5.79392453E-15, -2.99586127E+04,
                       5.91042055E+00])),
        transport=gas_transport(geom='nonlinear',
                                diam=2.605,
                                well_depth=572.402,
                                dipole=1.844,
                                rot_relax=4.0))

species(name='CH4(5)',
        atoms='C:1 H:4',
        thermo=(NASA([100.00, 1084.14],
                     [ 4.20540357E+00, -5.35543930E-03,  2.51118744E-05,
                      -2.13757274E-08,  5.97501614E-12, -1.01619428E+04,
                      -9.21237248E-01]),
                NASA([1084.14, 5000.00],
                     [ 9.08332935E-01,  1.14539750E-02, -4.57167583E-06,
                       8.29177165E-10, -5.66303015E-14, -9.72000388E+03,
                       1.39927137E+01])),
        transport=gas_transport(geom='nonlinear',
                                diam=3.746,
                                well_depth=141.4,
                                polar=2.6,
                                rot_relax=13.0))

species(name='F(6)',
        atoms='F:1',
        thermo=(NASA([298.00, 1400.00],
                     [ 2.90371000E+00, -6.35296000E-04,  2.64735000E-07,
                       7.69063000E-11, -5.45254000E-14,  8.67227000E+03,
                       2.70828000E+00]),
                NASA([1400.00, 3000.00],
                     [ 2.65117000E+00, -1.40130000E-04,  5.19236000E-08,
                      -8.84954000E-12,  5.90280000E-16,  8.75829000E+03,
                       4.07857000E+00])),
        transport=gas_transport(geom='atom',
                                diam=2.75,
                                well_depth=80.0))

species(name='CH3F(7)',
        atoms='C:1 F:1 H:3',
        thermo=(NASA([298.00, 1100.00],
                     [ 2.59624000E+00,  3.65317000E-03,  1.31032000E-05,
                      -1.45330000E-08,  4.48014000E-12, -2.90068000E+04,
                       1.04823000E+01]),
                NASA([1100.00, 3000.00],
                     [ 2.64400000E+00,  9.97251000E-03, -3.98497000E-06,
                       7.25148000E-10, -4.88440000E-14, -2.94271000E+04,
                       8.42306000E+00])),
        transport=gas_transport(geom='nonlinear',
                                diam=4.123,
                                well_depth=262.0,
                                dipole=1.8))

species(name='H(8)',
        atoms='H:1',
        thermo=(NASA([100.00, 3959.16],
                     [ 2.50000000E+00,  1.49297701E-14, -2.05327212E-17,
                       9.23927165E-21, -1.28063600E-24,  2.54742178E+04,
                      -4.44972896E-01]),
                NASA([3959.16, 5000.00],
                     [ 2.49999988E+00,  1.19009278E-10, -4.23987408E-14,
                       6.68965199E-18, -3.94352207E-22,  2.54742179E+04,
                      -4.44972115E-01])),
        transport=gas_transport(geom='atom',
                                diam=2.05,
                                well_depth=145.0))

species(name='CH2F2(9)',
        atoms='C:1 F:2 H:2',
        thermo=(NASA([298.00, 1100.00],
                     [ 1.73901000E+00,  1.19379000E-02, -2.69321000E-07,
                      -5.51894000E-09,  2.18135000E-12, -5.54397000E+04,
                       1.62342000E+01]),
                NASA([1100.00, 3000.00],
                     [ 4.55850000E+00,  8.31979000E-03, -3.37157000E-06,
                       6.18797000E-10, -4.19515000E-14, -5.65062000E+04,
                       4.36637000E-01])),
        transport=gas_transport(geom='nonlinear',
                                diam=4.123,
                                well_depth=262.0,
                                dipole=1.8))

species(name='CHF3(10)',
        atoms='C:1 F:3 H:1',
        thermo=(NASA([298.00, 1300.00],
                     [ 6.80758000E-01,  2.39859000E-02, -2.18336000E-05,
                       9.98026000E-09, -1.85179000E-12, -8.49894000E+04,
                       2.10617000E+01]),
                NASA([1300.00, 3000.00],
                     [ 7.52417000E+00,  5.23005000E-03, -2.03600000E-06,
                       3.57296000E-10, -2.30997000E-14, -8.70225000E+04,
                      -1.46112000E+01])),
        transport=gas_transport(geom='nonlinear',
                                diam=4.123,
                                well_depth=262.0,
                                dipole=1.8))

species(name='CF4(11)',
        atoms='C:1 F:4',
        thermo=(NASA([298.00, 1250.00],
                     [ 3.29574000E-01,  3.32696000E-02, -3.88267000E-05,
                       2.20593000E-08, -4.94837000E-12, -1.13504000E+05,
                       2.12017000E+01]),
                NASA([1250.00, 3000.00],
                     [ 9.80832000E+00,  3.28269000E-03, -1.34045000E-06,
                       2.43738000E-10, -1.62862000E-14, -1.16025000E+05,
                      -2.70002000E+01])),
        transport=gas_transport(geom='nonlinear',
                                diam=4.662,
                                well_depth=134.0))

species(name='CH2(12)',
        atoms='C:1 H:2',
        thermo=(NASA([100.00, 1104.57],
                     [ 4.01192395E+00, -1.54979436E-04,  3.26298023E-06,
                      -2.40422025E-09,  5.69497431E-13,  4.58676802E+04,
                       5.33200236E-01]),
                NASA([1104.57, 5000.00],
                     [ 3.14983422E+00,  2.96674194E-03, -9.76055446E-07,
                       1.54115181E-10, -9.50337275E-15,  4.60581389E+04,
                       4.77807473E+00])),
        transport=gas_transport(geom='nonlinear',
                                diam=3.8,
                                well_depth=144.001))

species(name='CHF(13)',
        atoms='C:1 F:1 H:1',
        thermo=(NASA([100.00, 1017.49],
                     [ 3.92902974E+00, -1.13283184E-03,  1.33433280E-05,
                      -1.59093925E-08,  5.65017092E-12,  2.62804216E+04,
                       4.54271677E+00]),
                NASA([1017.49, 5000.00],
                     [ 5.22567371E+00,  1.01067634E-03, -4.91425054E-07,
                       1.49455933E-10, -1.40396912E-14,  2.56417378E+04,
                      -3.57721106E+00])),
        transport=gas_transport(geom='nonlinear',
                                diam=4.332,
                                well_depth=288.989))

species(name='CH(14)',
        atoms='C:1 H:1',
        thermo=(NASA([200.00, 1000.00],
                     [ 3.48982000E+00,  3.23836000E-04, -1.68899000E-06,
                       3.16217000E-09, -1.40609000E-12,  7.07973000E+04,
                       2.08401000E+00]),
                NASA([1000.00, 3500.00],
                     [ 2.87846000E+00,  9.70914000E-04,  1.44446000E-07,
                      -1.30688000E-10,  1.76079000E-14,  7.10124000E+04,
                       5.48498000E+00])),
        transport=gas_transport(geom='linear',
                                diam=2.75,
                                well_depth=80.0))

species(name='HF(15)',
        atoms='F:1 H:1',
        thermo=(NASA([298.00, 1250.00],
                     [ 3.43657000E+00,  4.86021000E-04, -1.25240000E-06,
                       1.36475000E-09, -4.09574000E-13, -3.38001000E+04,
                       1.20682000E+00]),
                NASA([1250.00, 3000.00],
                     [ 2.78130000E+00,  1.03959000E-03, -2.41735000E-07,
                       2.68416000E-11, -1.09766000E-15, -3.35042000E+04,
                       5.01970000E+00])),
        transport=gas_transport(geom='linear',
                                diam=3.148,
                                well_depth=330.001,
                                dipole=1.92,
                                polar=2.46,
                                rot_relax=1.0))

species(name='CF2(16)',
        atoms='C:1 F:2',
        thermo=(NASA([298.00, 1300.00],
                     [ 2.28591000E+00,  1.07608000E-02, -1.05382000E-05,
                       4.89881000E-09, -8.86384000E-13,  4.21669000E+03,
                       1.31348000E+01]),
                NASA([1300.00, 3000.00],
                     [ 5.33121000E+00,  1.97748000E-03, -9.60248000E-07,
                       2.10704000E-10, -1.59540000E-14,  3.36649000E+03,
                      -2.56367000E+00])),
        transport=gas_transport(geom='nonlinear',
                                diam=4.226,
                                well_depth=289.295))

species(name='CF(17)',
        atoms='C:1 F:1',
        thermo=(NASA([298.00, 1100.00],
                     [ 3.35384000E+00,  2.09097000E-04,  3.20774000E-06,
                      -3.66875000E-09,  1.19863000E-12,  2.79077000E+04,
                       6.33463000E+00]),
                NASA([1100.00, 3000.00],
                     [ 3.66497000E+00,  9.73681000E-04, -4.10982000E-07,
                       8.00629000E-11, -5.64981000E-15,  2.77242000E+04,
                       4.28163000E+00])),
        transport=gas_transport(geom='linear',
                                diam=3.635,
                                well_depth=94.2))

species(name='O(18)',
        atoms='O:1',
        thermo=(NASA([100.00, 3959.16],
                     [ 2.50000000E+00,  1.49297701E-14, -2.05327212E-17,
                       9.23927165E-21, -1.28063600E-24,  2.92302441E+04,
                       5.12616427E+00]),
                NASA([3959.16, 5000.00],
                     [ 2.49999988E+00,  1.19009278E-10, -4.23987408E-14,
                       6.68965199E-18, -3.94352207E-22,  2.92302442E+04,
                       5.12616505E+00])),
        transport=gas_transport(geom='atom',
                                diam=2.75,
                                well_depth=80.0))

species(name='FCO(19)',
        atoms='C:1 F:1 O:1',
        thermo=(NASA([298.00, 1250.00],
                     [ 2.94061000E+00,  7.47092000E-03, -6.21833000E-06,
                       2.62916000E-09, -4.73222000E-13, -2.17923000E+04,
                       1.11689000E+01]),
                NASA([1250.00, 3000.00],
                     [ 5.14996000E+00,  1.84938000E-03, -7.40232000E-07,
                       1.32785000E-10, -8.83060000E-15, -2.24884000E+04,
                      -4.96830000E-01])),
        transport=gas_transport(geom='nonlinear',
                                diam=4.0,
                                well_depth=860.0))

species(name='CO(20)',
        atoms='C:1 O:1',
        thermo=(NASA([100.00, 1571.64],
                     [ 3.56837966E+00, -8.52122508E-04,  2.48916982E-06,
                      -1.56330293E-09,  3.13593093E-13, -1.42842549E+04,
                       3.57912300E+00]),
                NASA([1571.64, 5000.00],
                     [ 2.91307498E+00,  1.64656661E-03, -6.88609141E-07,
                       1.21036145E-10, -7.84008723E-15, -1.41808889E+04,
                       6.71040926E+00])),
        transport=gas_transport(geom='linear',
                                diam=3.65,
                                well_depth=98.1,
                                polar=1.95,
                                rot_relax=1.8))

species(name='CHF2(21)',
        atoms='C:1 F:2 H:1',
        thermo=(NASA([298.00, 1150.00],
                     [ 1.83276000E+00,  1.34164000E-02, -9.54328000E-06,
                       2.95930000E-09, -2.79200000E-13, -3.08571000E+04,
                       1.67589000E+01]),
                NASA([1150.00, 3000.00],
                     [ 5.44828000E+00,  4.41165000E-03, -1.74189000E-06,
                       3.09200000E-10, -2.01762000E-14, -3.19610000E+04,
                      -2.29455000E+00])),
        transport=gas_transport(geom='nonlinear',
                                diam=4.123,
                                well_depth=262.0,
                                dipole=1.8))

species(name='CF2O(22)',
        atoms='C:1 F:2 O:1',
        thermo=(NASA([298.00, 1150.00],
                     [ 1.17614000E+00,  2.10870000E-02, -2.39216000E-05,
                       1.39949000E-08, -3.37605000E-12, -7.79513000E+04,
                       1.91134000E+01]),
                NASA([1150.00, 3000.00],
                     [ 6.79131000E+00,  3.38305000E-03, -1.43012000E-06,
                       2.71226000E-10, -1.90524000E-14, -7.94540000E+04,
                      -9.48312000E+00])),
        transport=gas_transport(geom='nonlinear',
                                diam=4.906,
                                well_depth=350.5))

species(name='CO2(23)',
        atoms='C:1 O:2',
        thermo=(NASA([200.00, 1000.00],
                     [ 2.35677000E+00,  8.98460000E-03, -7.12356000E-06,
                       2.45919000E-09, -1.43700000E-13, -4.83720000E+04,
                       9.90105000E+00]),
                NASA([1000.00, 3500.00],
                     [ 3.85746000E+00,  4.41437000E-03, -2.21481000E-06,
                       5.23490000E-10, -4.72084000E-14, -4.87592000E+04,
                       2.27164000E+00])),
        transport=gas_transport(geom='linear',
                                diam=3.763,
                                well_depth=244.001,
                                polar=2.65,
                                rot_relax=2.1))

species(name='CFOOH(24)',
        atoms='C:1 F:1 H:1 O:2',
        thermo=(NASA([10.00, 614.34],
                     [ 3.96655000E+00,  1.85137000E-03,  4.47909000E-05,
                      -7.96564000E-08,  4.23622000E-11, -7.52474000E+04,
                       7.80392000E+00]),
                NASA([614.34, 3000.00],
                     [ 2.83475000E+00,  1.73246000E-02, -1.27762000E-05,
                       4.28620000E-09, -5.35304000E-13, -7.52612000E+04,
                       1.14681000E+01])),
        transport=gas_transport(geom='nonlinear',
                                diam=5.199,
                                well_depth=433.932))

species(name='CHF2OO(25)',
        atoms='C:1 F:2 H:1 O:2',
        thermo=(NASA([10.00, 497.32],
                     [ 3.92725000E+00,  4.70123000E-03,  7.24333000E-05,
                      -1.66658000E-07,  1.13367000E-10, -5.14702000E+04,
                       1.15590000E+01]),
                NASA([497.32, 3000.00],
                     [ 3.77619000E+00,  1.96241000E-02, -1.39226000E-05,
                       4.52949000E-09, -5.50671000E-13, -5.16247000E+04,
                       1.04780000E+01])),
        transport=gas_transport(geom='nonlinear',
                                diam=5.198,
                                well_depth=386.937))

species(name='CH2F(26)',
        atoms='C:1 F:1 H:2',
        thermo=(NASA([298.00, 1300.00],
                     [ 2.11797000E+00,  1.02393000E-02, -6.62089000E-06,
                       2.37857000E-09, -3.89336000E-13, -4.95742000E+03,
                       1.33394000E+01]),
                NASA([1300.00, 3000.00],
                     [ 4.06013000E+00,  5.46642000E-03, -2.10949000E-06,
                       3.74458000E-10, -2.47400000E-14, -5.59277000E+03,
                       3.01379000E+00])),
        transport=gas_transport(geom='nonlinear',
                                diam=4.123,
                                well_depth=262.0,
                                dipole=1.8))

species(name='CH3(27)',
        atoms='C:1 H:3',
        thermo=(NASA([200.00, 1000.00],
                     [ 3.67359000E+00,  2.01095000E-03,  5.73022000E-06,
                      -6.87117000E-09,  2.54386000E-12,  1.64450000E+04,
                       1.60456000E+00]),
                NASA([1000.00, 3500.00],
                     [ 2.28572000E+00,  7.23990000E-03, -2.98714000E-06,
                       5.95685000E-10, -4.67154000E-14,  1.67756000E+04,
                       8.48007000E+00])),
        transport=gas_transport(geom='nonlinear',
                                diam=3.8,
                                well_depth=144.001))

species(name='H2(28)',
        atoms='H:2',
        thermo=(NASA([100.00, 1959.07],
                     [ 3.43536386E+00,  2.12712593E-04, -2.78630123E-07,
                       3.40271151E-10, -7.76041865E-14, -1.03135983E+03,
                      -3.90841633E+00]),
                NASA([1959.07, 5000.00],
                     [ 2.78819279E+00,  5.87605915E-04,  1.59026815E-07,
                      -5.52771937E-11,  4.34334972E-15, -5.96160176E+02,
                       1.12572842E-01])),
        transport=gas_transport(geom='linear',
                                diam=2.92,
                                well_depth=38.0,
                                polar=0.79,
                                rot_relax=280.0))

species(name='CFOH(29)',
        atoms='C:1 F:1 H:1 O:1',
        thermo=(NASA([100.00, 987.02],
                     [ 3.34425844E+00,  1.04286260E-02, -1.53634038E-06,
                      -8.54609889E-09,  4.63415994E-12,  2.95244951E+03,
                       8.82076546E+00]),
                NASA([987.02, 5000.00],
                     [ 8.33235494E+00, -2.72539176E-04,  2.68489686E-07,
                       2.39035132E-13, -3.96090031E-15,  1.50436517E+03,
                      -1.75262836E+01])),
        transport=gas_transport(geom='nonlinear',
                                diam=5.078,
                                well_depth=366.071))

species(name='CHFO(30)',
        atoms='C:1 F:1 H:1 O:1',
        thermo=(NASA([298.00, 1150.00],
                     [ 2.11850000E+00,  1.07740000E-02, -5.51582000E-06,
                       5.81519000E-10,  2.17042000E-13, -4.63567000E+04,
                       1.46524000E+01]),
                NASA([1150.00, 3000.00],
                     [ 4.81925000E+00,  5.05418000E-03, -2.01421000E-06,
                       3.63591000E-10, -2.44724000E-14, -4.72631000E+04,
                       9.72251000E-02])),
        transport=gas_transport(geom='nonlinear',
                                diam=4.906,
                                well_depth=350.5))

species(name='CHF2O(31)',
        atoms='C:1 F:2 H:1 O:1',
        thermo=(NASA([10.00, 577.89],
                     [ 4.07235000E+00, -6.74902000E-03,  8.67846000E-05,
                      -1.53143000E-07,  8.61960000E-11, -5.12636000E+04,
                       9.19392000E+00]),
                NASA([577.89, 3000.00],
                     [ 2.80054000E+00,  1.65720000E-02, -1.14320000E-05,
                       3.63450000E-09, -4.33761000E-13, -5.13590000E+04,
                       1.25348000E+01])),
        transport=gas_transport(geom='nonlinear',
                                diam=4.998,
                                well_depth=368.461))

species(name='CHF2OH(32)',
        atoms='C:1 F:2 H:2 O:1',
        thermo=(NASA([10.00, 593.85],
                     [ 3.93609000E+00,  3.66784000E-03,  6.01076000E-05,
                      -1.20272000E-07,  7.01069000E-11, -8.26251000E+04,
                       8.12343000E+00]),
                NASA([593.85, 3000.00],
                     [ 4.25321000E+00,  1.68559000E-02, -1.19109000E-05,
                       4.02989000E-09, -5.14929000E-13, -8.29330000E+04,
                       4.48375000E+00])),
        transport=gas_transport(geom='nonlinear',
                                diam=4.998,
                                well_depth=368.461))

species(name='HO2(33)',
        atoms='H:1 O:2',
        thermo=(NASA([200.00, 1000.00],
                     [ 4.30180000E+00, -4.74912000E-03,  2.11583000E-05,
                      -2.42764000E-08,  9.29225000E-12,  2.94808000E+02,
                       3.71666000E+00]),
                NASA([1000.00, 3500.00],
                     [ 4.01721000E+00,  2.23982000E-03, -6.33658000E-07,
                       1.14246000E-10, -1.07909000E-14,  1.11857000E+02,
                       3.78510000E+00])),
        transport=gas_transport(geom='nonlinear',
                                diam=3.458,
                                well_depth=107.4,
                                rot_relax=1.0))

species(name='CH3CHF(34)',
        atoms='C:2 F:1 H:4',
        thermo=(NASA([298.00, 1100.00],
                     [ 2.40043000E+00,  1.70574000E-02, -4.32069000E-06,
                      -2.67974000E-09,  1.28658000E-12, -1.05895000E+04,
                       1.44186000E+01]),
                NASA([1100.00, 3000.00],
                     [ 4.40083000E+00,  1.44742000E-02, -6.24385000E-06,
                       1.20968000E-09, -8.54199000E-14, -1.13556000E+04,
                       3.19125000E+00])),
        transport=gas_transport(geom='nonlinear',
                                diam=4.583,
                                well_depth=312.2,
                                dipole=2.0))

species(name='CHF2CH2(35)',
        atoms='C:2 F:2 H:3',
        thermo=(NASA([298.00, 1100.00],
                     [ 1.21237000E+00,  2.99528000E-02, -2.78097000E-05,
                       1.45866000E-08, -3.35363000E-12, -3.48400000E+04,
                       2.11127000E+01]),
                NASA([1100.00, 3000.00],
                     [ 6.79826000E+00,  1.21309000E-02, -5.28714000E-06,
                       1.03624000E-09, -7.40874000E-14, -3.62912000E+04,
                      -7.21609000E+00])),