units(length='cm', time='s', quantity='mol', act_energy='kcal/mol')

ideal_gas(name='gas',
          elements="H D T C Ci O Oi N Ne Ar He Si S F Cl Br I X",
          species="""N2                Ne                C3H2F4(1)
                     OH(2)             O2(3)             H2O(4)
                     F(6)              H(8)              CH2F2(9)
                     CHF3(10)          CF4(11)           CHF(13)
                     HF(15)            CF2(16)           O(18)
                     CO(20)            CHF2(21)          CF2O(22)
                     CO2(23)           CHF2OO(25)        CH2F(26)
                     CHFO(30)          HO2(33)           CH2CHF(38)
                     CH2CF2(43)        CHFCF2(48)        CH2O(52)
                     C2H2(57)          HCCO(58)          CH2CO(60)
                     CF3(71)           CHFCO(72)         CF3O(74)
                     C2HF(77)          CF3-CH2(87)       CF3-CHF(88)
                     CF3COF(99)        CF3CCH2(102)      CF3CHCH(103)
                     CF3CCH(106)       CHFCCF3(108)      CHFCHCF3(109)
                     CFCHCF3(110)      CH2CFO(112)       CH-CFCF3(113)
                     CHF-2(124)        CF2-2(125)        CHOCFCF3(126)
                     CH3CFCF3(127)     C3H2F4(165)       C3H2F3(166)
                     C3H2F4(167)       C6H4F8(172)       C3H2F5(175)
                     C3H2F4O2(178)     C3H2F4(180)       C3H2F4(191)
                     O2(198)           C3H2F4O(199)      C3H2F4O2(201)
                     C3H2F4O(202)      C3HF3(213)        C6H3F8(223)
                     [O]O[C](F)F(258)  C3H2F3O2(267)     C3HF4O(445)
                     C3HF4O(604)       C3H3F3(665)       C3H2F5O2(667)
                     C3H2F3O2(668)     C3H2F3O2(727)     [O]OCF(820)
                     C4H2F7(841)       CF3O2(842)        C4H2F7(852)
                     CHO2(868)         C3HF3O(889)       C3H2F4(1173)
                     C3HF4(1174)       C4H2F7O2(1186)    C3H3F4O2(1191)
                     C2HF4O2(1193)     C4H2F7O2(1213)    C4H3F4O(1525)
                     C3H2F3O(1550)     C2HF(1742)        C2HF3(1888)
                     FC1(F)OO1(1908)   CF2O2(1910)       CFO2(1912)
                     C3H3F4O(2088)     C3H2F4O(2091)     C3H3F4O(2133)
                     C2H2O(2145)       C2H2FO3(2314)     C3H3F4O(2700)
                     C6H3F8(3048)      C6H3F8(3056)      C6H3F8O2(3070)
                     C3HF4O2(3126)     C3HF4O2(3131)     C6H3F8O2(3147)
                     C3HF4O(3175)      C2HF2O(3182)      C3HF4O3(3197)
                     C6H3F8O2(3273)    C6H3F8O2(3274)    C3HF3O(3362)
                     C3H3FO(3402)      C6H3F8O4(3631)    C6H3F8O2(3680)
                     C6H3F8O2(3830)    C6H3F8O2(3831)    C3HF4O3(3929)
                     C3HF4O3(3951)     FC1OO1(3977)      [O]C([O])F(3978)
                     C3HF4O3(4370)     C2HF4O2(5100)     C3HF4O2(5650)
                     C3HF4O2(5962)     C2HF2O3(6138)     C6H3F8O4(6288)
                     C3HF3O(6331)      C3HF3O(6442)      C2H3FO(7011)
                     C3H2F4O(7031)     C3HF4O3(10325)    C3HF3O(10527)
                     C6H3F8O4(15098)   C4H3F4O3(15145)   C4H2F4O2(15205)
                     C4H3F4O(15213)    C4H3F4O3(15223)""",
          reactions='all',
          transport='Mix',
          initial_state=state(temperature=300.0, pressure=OneAtm))

#-------------------------------------------------------------------------------
# Element data
#-------------------------------------------------------------------------------

element(symbol='Ci', atomic_mass=13.003)
element(symbol='D', atomic_mass=2.014)
element(symbol='Oi', atomic_mass=17.999)
element(symbol='T', atomic_mass=3.016)
element(symbol='X', atomic_mass=195.083)
#-------------------------------------------------------------------------------
# Species data
#-------------------------------------------------------------------------------

species(name='N2',
        atoms='N:2',
        thermo=(NASA([298.00, 1000.00],
                     [ 3.29868000E+00,  1.40824000E-03, -3.96322000E-06,
                       5.64152000E-09, -2.44485000E-12, -1.02090000E+03,
                       3.95037000E+00]),
                NASA([1000.00, 5000.00],
                     [ 2.92664000E+00,  1.48798000E-03, -5.68476000E-07,
                       1.00970000E-10, -6.75335000E-15, -9.22798000E+02,
                       5.98053000E+00])),
        transport=gas_transport(geom='linear',
                                diam=3.621,
                                well_depth=97.53,
                                polar=1.76,
                                rot_relax=4.0))

species(name='Ne',
        atoms='Ne:1',
        thermo=(NASA([200.00, 1000.00],
                     [ 2.50000000E+00,  0.00000000E+00,  0.00000000E+00,
                       0.00000000E+00,  0.00000000E+00, -7.45375000E+02,
                       3.35532000E+00]),
                NASA([1000.00, 6000.00],
                     [ 2.50000000E+00,  0.00000000E+00,  0.00000000E+00,
                       0.00000000E+00,  0.00000000E+00, -7.45375000E+02,
                       3.35532000E+00])),
        transport=gas_transport(geom='atom',
                                diam=3.758,
                                well_depth=148.6))

species(name='C3H2F4(1)',
        atoms='C:3 F:4 H:2',
        thermo=(NASA([200.00, 1000.00],
                     [ 1.00153000E+00,  4.98008000E-02, -4.61878000E-05,
                       1.64792000E-08, -3.13156000E-13, -9.99487000E+04,
                       2.07747000E+01]),
                NASA([1000.00, 6000.00],
                     [ 1.43110000E+01,  9.44785000E-03, -3.52268000E-06,
                       5.79392000E-10, -3.50621000E-14, -1.03384000E+05,
                      -4.69130000E+01])),
        transport=gas_transport(geom='nonlinear',
                                diam=4.9,
                                well_depth=371.0))

species(name='OH(2)',
        atoms='H:1 O:1',
        thermo=(NASA([200.00, 1000.00],
                     [ 3.99202000E+00, -2.40132000E-03,  4.61794000E-06,
                      -3.88113000E-09,  1.36411000E-12,  3.61508000E+03,
                      -1.03925000E-01]),
                NASA([1000.00, 3500.00],
                     [ 3.09289000E+00,  5.48430000E-04,  1.26505000E-07,
                      -8.79462000E-11,  1.17412000E-14,  3.85866000E+03,
                       4.47670000E+00])),
        transport=gas_transport(geom='linear',
                                diam=2.75,
                                well_depth=80.0))

species(name='O2(3)',
        atoms='O:2',
        thermo=(NASA([200.00, 1000.00],
                     [ 3.78246000E+00, -2.99673000E-03,  9.84730000E-06,
                      -9.68130000E-09,  3.24373000E-12, -1.06394000E+03,
                       3.65768000E+00]),
                NASA([1000.00, 3500.00],
                     [ 3.28254000E+00,  1.48309000E-03, -7.57967000E-07,
                       2.09471000E-10, -2.16718000E-14, -1.08846000E+03,
                       5.45323000E+00])),
        transport=gas_transport(geom='linear',
                                diam=3.458,
                                well_depth=107.4,
                                polar=1.6,
                                rot_relax=3.8))

species(name='H2O(4)',
        atoms='H:2 O:1',
        thermo=(NASA([200.00, 1000.00],
                     [ 4.19864000E+00, -2.03643000E-03,  6.52040000E-06,
                      -5.48797000E-09,  1.77198000E-12, -3.02937000E+04,
                      -8.49032000E-01]),
                NASA([1000.00, 3500.00],
                     [ 3.03399000E+00,  2.17692000E-03, -1.64073000E-07,
                      -9.70420000E-11,  1.68201000E-14, -3.00043000E+04,
                       4.96677000E+00])),
        transport=gas_transport(geom='nonlinear',
                                diam=2.605,
                                well_depth=572.402,
                                dipole=1.844,
                                rot_relax=4.0))

species(name='F(6)',
        atoms='F:1',
        thermo=(NASA([200.00, 1000.00],
                     [ 2.41967000E+00,  2.93929000E-03, -8.92122000E-06,
                       9.91185000E-09, -3.79472000E-12,  8.75732000E+03,
                       4.74690000E+00]),
                NASA([1000.00, 6000.00],
                     [ 2.67163000E+00, -1.74619000E-04,  6.90665000E-08,
                      -1.19535000E-11,  7.52367000E-16,  8.78741000E+03,
                       3.98426000E+00])),
        transport=gas_transport(geom='atom',
                                diam=2.75,
                                well_depth=80.0))

species(name='H(8)',
        atoms='H:1',
        thermo=(NASA([200.00, 1000.00],
                     [ 2.50000000E+00,  7.05333000E-13, -1.99592000E-15,
                       2.30082000E-18, -9.27732000E-22,  2.54737000E+04,
                      -4.46683000E-01]),
                NASA([1000.00, 3500.00],
                     [ 2.50000000E+00, -2.30843000E-11,  1.61562000E-14,
                      -4.73515000E-18,  4.98197000E-22,  2.54737000E+04,
                      -4.46683000E-01])),
        transport=gas_transport(geom='atom',
                                diam=2.05,
                                well_depth=145.0))

species(name='CH2F2(9)',
        atoms='C:1 F:2 H:2',
        thermo=(NASA([200.00, 1000.00],
                     [ 4.25023000E+00, -6.84861000E-03,  4.85583000E-05,
                      -5.83443000E-08,  2.24504000E-11, -5.56073000E+04,
                       5.76716000E+00]),
                NASA([1000.00, 6000.00],
                     [ 5.06948000E+00,  7.23193000E-03, -2.64021000E-06,
                       4.30855000E-10, -2.59873000E-14, -5.65992000E+04,
                      -2.34590000E+00])),
        transport=gas_transport(geom='nonlinear',
                                diam=4.123,
                                well_depth=262.0,
                                dipole=1.8))

species(name='CHF3(10)',
        atoms='C:1 F:3 H:1',
        thermo=(NASA([200.00, 1000.00],
                     [ 2.73539000E+00,  8.72479000E-03,  1.74822000E-05,
                      -3.21505000E-08,  1.41695000E-11, -8.51821000E+04,
                       1.24880000E+01]),
                NASA([1000.00, 6000.00],
                     [ 7.24609000E+00,  5.42386000E-03, -2.02314000E-06,
                       3.34946000E-10, -2.04068000E-14, -8.68239000E+04,
                      -1.28982000E+01])),
        transport=gas_transport(geom='nonlinear',
                                diam=4.123,
                                well_depth=262.0,
                                dipole=1.8))

species(name='CF4(11)',
        atoms='C:1 F:4',
        thermo=(NASA([200.00, 1000.00],
                     [ 1.05120000E+00,  2.78318000E-02, -2.46683000E-05,
                       6.75883000E-09,  9.14851000E-13, -1.13574000E+05,
                       1.81937000E+01]),
                NASA([1000.00, 6000.00],
                     [ 9.47337000E+00,  3.59408000E-03, -1.40334000E-06,
                       2.39114000E-10, -1.48513000E-14, -1.15817000E+05,
                      -2.49737000E+01])),
        transport=gas_transport(geom='nonlinear',
                                diam=4.662,
                                well_depth=134.0))

species(name='CHF(13)',
        atoms='C:1 F:1 H:1',
        thermo=(NASA([200.00, 1000.00],
                     [ 4.42273000E+00, -5.60196000E-03,  2.21849000E-05,
                      -2.39634000E-08,  8.91307000E-12,  1.66516000E+04,
                       2.54111000E+00]),
                NASA([1000.00, 6000.00],
                     [ 2.09415000E+00,  5.34934000E-03, -1.69763000E-06,
                       2.19446000E-10, -1.00206000E-14,  1.72042000E+04,
                       1.37861000E+01])),
        transport=gas_transport(geom='nonlinear',
                                diam=4.332,
                                well_depth=288.989))

species(name='HF(15)',
        atoms='F:1 H:1',
        thermo=(NASA([200.00, 1000.00],
                     [ 3.48137000E+00,  2.12246000E-04, -6.86359000E-07,
                       8.56186000E-10, -2.34582000E-13, -3.38607000E+04,
                       1.02580000E+00]),
                NASA([1000.00, 6000.00],
                     [ 2.92491000E+00,  8.50523000E-04, -1.58180000E-07,
                       1.17507000E-11, -1.43309000E-16, -3.36352000E+04,
                       4.19019000E+00])),
        transport=gas_transport(geom='linear',
                                diam=3.148,
                                well_depth=330.001,
                                dipole=1.92,
                                polar=2.46,
                                rot_relax=1.0))

species(name='CF2(16)',
        atoms='C:1 F:2',
        thermo=(NASA([200.00, 1000.00],
                     [ 3.56435000E+00,  1.23021000E-03,  1.39910000E-05,
                      -2.13708000E-08,  9.10711000E-12, -2.45419000E+04,
                       7.83908000E+00]),
                NASA([1000.00, 6000.00],
                     [ 5.35788000E+00,  1.80622000E-03, -7.80465000E-07,
                       1.47643000E-10, -9.44754000E-15, -2.52559000E+04,
                      -2.63411000E+00])),
        transport=gas_transport(geom='nonlinear',
                                diam=4.226,
                                well_depth=289.295))

species(name='O(18)',
        atoms='O:1',
        thermo=(NASA([200.00, 1000.00],
                     [ 3.16827000E+00, -3.27932000E-03,  6.64306000E-06,
                      -6.12807000E-09,  2.11266000E-12,  2.91223000E+04,
                       2.05193000E+00]),
                NASA([1000.00, 3500.00],
                     [ 2.56942000E+00, -8.59741000E-05,  4.19485000E-08,
                      -1.00178000E-11,  1.22834000E-15,  2.92176000E+04,
                       4.78434000E+00])),
        transport=gas_transport(geom='atom',
                                diam=2.75,
                                well_depth=80.0))

species(name='CO(20)',
        atoms='C:1 O:1',
        thermo=(NASA([200.00, 1000.00],
                     [ 3.57953000E+00, -6.10354000E-04,  1.01681000E-06,
                       9.07006000E-10, -9.04424000E-13, -1.43441000E+04,
                       3.50841000E+00]),
                NASA([1000.00, 3500.00],
                     [ 2.71519000E+00,  2.06253000E-03, -9.98826000E-07,
                       2.30053000E-10, -2.03648000E-14, -1.41519000E+04,
                       7.81869000E+00])),
        transport=gas_transport(geom='linear',
                                diam=3.65,
                                well_depth=98.1,
                                polar=1.95,
                                rot_relax=1.8))

species(name='CHF2(21)',
        atoms='C:1 F:2 H:1',
        thermo=(NASA([200.00, 1000.00],
                     [ 4.12221000E+00, -2.33707000E-03,  2.99283000E-05,
                      -3.88423000E-08,  1.55353000E-11, -3.05990000E+04,
                       7.22245000E+00]),
                NASA([1000.00, 6000.00],
                     [ 5.52321000E+00,  4.21970000E-03, -1.58435000E-06,
                       2.63969000E-10, -1.61338000E-14, -3.14405000E+04,
                      -2.40335000E+00])),
        transport=gas_transport(geom='nonlinear',
                                diam=4.123,
                                well_depth=262.0,
                                dipole=1.8))

species(name='CF2O(22)',
        atoms='C:1 F:2 O:1',
        thermo=(NASA([200.00, 1000.00],
                     [ 2.12979000E+00,  1.41020000E-02, -5.94383000E-06,
                      -5.30542000E-09,  3.97366000E-12, -7.41637000E+04,
                       1.51109000E+01]),
                NASA([1000.00, 6000.00],
                     [ 6.81632000E+00,  3.16473000E-03, -1.21776000E-06,
                       2.05582000E-10, -1.26893000E-14, -7.55375000E+04,
                      -9.52865000E+00])),
        transport=gas_transport(geom='nonlinear',
                                diam=4.906,
                                well_depth=350.5))

species(name='CO2(23)',
        atoms='C:1 O:2',
        thermo=(NASA([200.00, 1000.00],
                     [ 2.35677000E+00,  8.98460000E-03, -7.12356000E-06,
                       2.45919000E-09, -1.43700000E-13, -4.83720000E+04,
                       9.90105000E+00]),
                NASA([1000.00, 3500.00],
                     [ 3.85746000E+00,  4.41437000E-03, -2.21481000E-06,
                       5.23490000E-10, -4.72084000E-14, -4.87592000E+04,
                       2.27164000E+00])),
        transport=gas_transport(geom='linear',
                                diam=3.763,
                                well_depth=244.001,
                                polar=2.65,
                                rot_relax=2.1))

species(name='CHF2OO(25)',
        atoms='C:1 F:2 H:1 O:2',
        thermo=(NASA([10.00, 497.32],
                     [ 3.92725000E+00,  4.70123000E-03,  7.24333000E-05,
                      -1.66658000E-07,  1.13367000E-10, -5.14702000E+04,
                       1.15590000E+01]),
                NASA([497.32, 3000.00],
                     [ 3.77619000E+00,  1.96241000E-02, -1.39226000E-05,
                       4.52949000E-09, -5.50671000E-13, -5.16247000E+04,
                       1.04780000E+01])),
        transport=gas_transport(geom='nonlinear',
                                diam=5.198,
                                well_depth=386.937))

species(name='CH2F(26)',
        atoms='C:1 F:1 H:2',
        thermo=(NASA([200.00, 1000.00],
                     [ 3.78124000E+00, -4.49840000E-04,  1.88358000E-05,
                      -2.40703000E-08,  9.53478000E-12, -4.88501000E+03,
                       5.56895000E+00]),
                NASA([1000.00, 6000.00],
                     [ 4.11284000E+00,  5.00104000E-03, -1.74096000E-06,
                       2.75008000E-10, -1.62100000E-14, -5.25925000E+03,
                       2.38853000E+00])),
        transport=gas_transport(geom='nonlinear',
                                diam=4.123,
                                well_depth=262.0,
                                dipole=1.8))

species(name='CHFO(30)',
        atoms='C:1 F:1 H:1 O:1',
        thermo=(NASA([200.00, 1000.00],
                     [ 3.74246000E+00, -1.31011000E-03,  2.46793000E-05,
                      -3.12954000E-08,  1.22625000E-11, -4.72270000E+04,
                       7.89720000E+00]),
                NASA([1000.00, 6000.00],
                     [ 4.78813000E+00,  4.76650000E-03, -1.74367000E-06,
                       2.84956000E-10, -1.72051000E-14, -4.79424000E+04,
                       3.51967000E-01])),
        transport=gas_transport(geom='nonlinear',
                                diam=4.906,
                                well_depth=350.5))

species(name='HO2(33)',
        atoms='H:1 O:2',
        thermo=(NASA([200.00, 1000.00],
                     [ 4.30180000E+00, -4.74912000E-03,  2.11583000E-05,
                      -2.42764000E-08,  9.29225000E-12,  2.94808000E+02,
                       3.71666000E+00]),
                NASA([1000.00, 3500.00],
                     [ 4.01721000E+00,  2.23982000E-03, -6.33658000E-07,
                       1.14246000E-10, -1.07909000E-14,  1.11857000E+02,
                       3.78510000E+00])),
        transport=gas_transport(geom='nonlinear',
                                diam=3.458,
                                well_depth=107.4,
                                rot_relax=1.0))

species(name='CH2CHF(38)',
        atoms='C:2 F:1 H:3',
        thermo=(NASA([200.00, 1000.00],
                     [ 2.61150000E+00,  6.68684000E-03,  2.76818000E-05,
                      -4.33825000E-08,  1.85254000E-11, -1.84326000E+04,
                       1.26328000E+01]),
                NASA([1000.00, 6000.00],
                     [ 5.92787000E+00,  8.89384000E-03, -3.17972000E-06,
                       5.11682000E-10, -3.05632000E-14, -1.98277000E+04,
                      -7.04448000E+00])),
        transport=gas_transport(geom='nonlinear',
                                diam=4.322,
                                well_depth=272.2,
                                dipole=1.4))

species(name='CH2CF2(43)',
        atoms='C:2 F:2 H:2',
        thermo=(NASA([200.00, 1000.00],
                     [ 1.28302000E+00,  2.31904000E-02, -9.70095000E-06,
                      -4.40974000E-09,  3.38826000E-12, -4.35424000E+04,
                       1.82379000E+01]),
                NASA([1000.00, 6000.00],
                     [ 8.95190000E+00,  7.14641000E-03, -2.79505000E-06,
                       4.77439000E-10, -2.97191000E-14, -4.60295000E+04,
                      -2.29204000E+01])),
        transport=gas_transport(geom='nonlinear',
                                diam=4.442,
                                well_depth=251.5,
                                dipole=1.4))

species(name='CHFCF2(48)',
        atoms='C:2 F:3 H:1',
        thermo=(NASA([200.00, 1000.00],
                     [ 2.00354000E+00,  2.74141000E-02, -2.30032000E-05,
                       7.09389000E-09,  1.96149000E-13, -6.03000000E+04,
                       1.65697000E+01]),
                NASA([1000.00, 6000.00],
                     [ 9.56304000E+00,  6.03922000E-03, -2.24656000E-06,
                       3.71317000E-10, -2.25981000E-14, -6.23666000E+04,
                      -2.23574000E+01])),
        transport=gas_transport(geom='nonlinear',
                                diam=4.442,
                                well_depth=251.5,
                                dipole=1.4))

species(name='CH2O(52)',
        atoms='C:1 H:2 O:1',
        thermo=(NASA([200.00, 1000.00],
                     [ 4.79372000E+00, -9.90833000E-03,  3.73220000E-05,
                      -3.79285000E-08,  1.31773000E-11, -1.43090000E+04,
                       6.02813000E-01]),
                NASA([1000.00, 3500.00],
                     [ 1.76069000E+00,  9.20000000E-03, -4.42259000E-06,
                       1.00641000E-09, -8.83856000E-14, -1.39958000E+04,
                       1.36563000E+01])),
        transport=gas_transport(geom='nonlinear',
                                diam=3.59,
                                well_depth=498.002,
                                rot_relax=2.0))

species(name='C2H2(57)',
        atoms='C:2 H:2',
        thermo=(NASA([200.00, 1000.00],
                     [ 8.08681000E-01,  2.33616000E-02, -3.55172000E-05,
                       2.80152000E-08, -8.50073000E-12,  2.64290000E+04,
                       1.39397000E+01]),
                NASA([1000.00, 3500.00],
                     [ 4.14757000E+00,  5.96167000E-03, -2.37295000E-06,
                       4.67412000E-10, -3.61235000E-14,  2.59360000E+04,
                      -1.23028000E+00])),
        transport=gas_transport(geom='linear',
                                diam=4.1,
                                well_depth=209.001,
                                rot_relax=2.5))

species(name='HCCO(58)',
        atoms='C:2 H:1 O:1',
        thermo=(NASA([298.00, 1000.00],
                     [ 2.25172000E+00,  1.76550000E-02, -2.37291000E-05,
                       1.72758000E-08, -5.06648000E-12,  2.00594000E+04,
                       1.24904000E+01]),
                NASA([1000.00, 4000.00],
                     [ 5.62821000E+00,  4.08534000E-03, -1.59345000E-06,
                       2.86261000E-10, -1.94078000E-14,  1.93272000E+04,
                      -3.93026000E+00])),
        transport=gas_transport(geom='nonlinear',
                                diam=2.5,
                                well_depth=150.001,
                                rot_relax=1.0))

species(name='CH2CO(60)',
        atoms='C:2 H:2 O:1',
        thermo=(NASA([200.00, 1000.00],
                     [ 2.13584000E+00,  1.81189000E-02, -1.73947000E-05,
                       9.34398000E-09, -2.01458000E-12, -7.04292000E+03,
                       1.22156000E+01]),
                NASA([1000.00, 3500.00],
                     [ 4.51130000E+00,  9.00360000E-03, -4.16940000E-06,
                       9.23346000E-10, -7.94838000E-14, -7.55105000E+03,
                       6.32247000E-01])),
        transport=gas_transport(geom='nonlinear',
                                diam=3.97,
                                well_depth=436.001,
                                rot_relax=2.0))

species(name='CF3(71)',
        atoms='C:1 F:3',
        thermo=(NASA([200.00, 1000.00],
                     [ 2.38179000E+00,  1.37270000E-02, -3.47675000E-06,
                      -9.01697000E-09,  5.57384000E-12, -5.76871000E+04,
                       1.43743000E+01]),
                NASA([1000.00, 6000.00],
                     [ 7.42982000E+00,  2.61729000E-03, -1.02142000E-06,
                       1.73976000E-10, -1.08028000E-14, -5.91796000E+04,
                      -1.22817000E+01])),
        transport=gas_transport(geom='nonlinear',
                                diam=4.32,
                                well_depth=121.0))

species(name='CHFCO(72)',
        atoms='C:2 F:1 H:1 O:1',
        thermo=(NASA([298.00, 1050.00],
                     [ 1.96237000E+00,  2.25075000E-02, -2.56389000E-05,
                       1.67917000E-08, -4.73482000E-12, -1.91040000E+04,
                       1.56743000E+01]),
                NASA([1050.00, 3000.00],
                     [ 6.77764000E+00,  6.23359000E-03, -2.55958000E-06,
                       4.75314000E-10, -3.25951000E-14, -2.03369000E+04,
                      -8.59113000E+00])),
        transport=gas_transport(geom='nonlinear',
                                diam=4.906,
                                well_depth=350.5))

species(name='CF3O(74)',
        atoms='C:1 F:3 O:1',
        thermo=(NASA([200.00, 1000.00],
                     [ 1.82041000E+00,  2.65327000E-02, -2.45067000E-05,
                       7.86172000E-09,  2.73541000E-13, -7.73781000E+04,
                       1.68622000E+01]),
                NASA([1000.00, 6000.00],
                     [ 9.76423000E+00,  3.30092000E-03, -1.28962000E-06,
                       2.19816000E-10, -1.36560000E-14, -7.94771000E+04,
                      -2.37694000E+01])),
        transport=gas_transport(geom='nonlinear',
                                diam=4.906,
                                well_depth=350.5))

species(name='C2HF(77)',
        atoms='C:2 F:1 H:1',
        thermo=(NASA([200.00, 1000.00],
                     [ 1.30649000E+00,  2.77924000E-02, -4.86269000E-05,
                       4.25957000E-08, -1.42676000E-11,  1.12860000E+04,
                       1.39347000E+01]),
                NASA([1000.00, 6000.00],
                     [ 6.20950000E+00,  3.69585000E-03, -1.29974000E-06,
                       2.06831000E-10, -1.22578000E-14,  1.04017000E+04,
                      -8.93525000E+00])),
        transport=gas_transport(geom='linear',
                                diam=4.25,
                                well_depth=225.0,
                                dipole=1.0))

species(name='CF3-CH2(87)',
        atoms='C:2 F:3 H:2',
        thermo=(NASA([298.00, 1150.00],
                     [ 7.17008000E-01,  4.05315000E-02, -4.78641000E-05,
                       2.94408000E-08, -7.31258000E-12, -6.51421000E+04,
                       2.21032000E+01]),
                NASA([1150.00, 3000.00],
                     [ 9.58796000E+00,  9.29988000E-03, -4.07747000E-06,
                       8.05717000E-10, -5.81855000E-14, -6.72873000E+04,
                      -2.21077000E+01])),
        transport=gas_transport(geom='nonlinear',
                                diam=4.911,
                                well_depth=289.1,
                                dipole=2.3))

species(name='CF3-CHF(88)',
        atoms='C:2 F:4 H:1',
        thermo=(NASA([298.00, 1250.00],
                     [ 2.17776000E+00,  3.76992000E-02, -4.16073000E-05,
                       2.31106000E-08, -5.13915000E-12, -8.61216000E+04,
                       1.72676000E+01]),
                NASA([1250.00, 3000.00],
                     [ 1.17531000E+01,  7.13118000E-03, -3.12251000E-06,
                       6.15301000E-10, -4.44146000E-14, -8.86442000E+04,
                      -3.13333000E+01])),
        transport=gas_transport(geom='nonlinear',
                                diam=4.85,
                                well_depth=323.4,
                                dipole=2.3))

species(name='CF3COF(99)',
        atoms='C:2 F:4 O:1',
        thermo=(NASA([298.00, 1000.00],
                     [ 1.76997000E+00,  4.24508000E-02, -5.06967000E-05,
                       3.11138000E-08, -7.89598000E-12, -1.25712000E+05,
                       2.01830000E+01]),
                NASA([1000.00, 5000.00],
                     [ 1.00627000E+01,  1.21434000E-02, -7.26341000E-06,
                       2.01144000E-09, -2.11896000E-13, -1.27590000E+05,
                      -2.07307000E+01])),
        transport=gas_transport(geom='nonlinear',
                                diam=4.906,
                                well_depth=350.5))

species(name='CF3CCH2(102)',
        atoms='C:3 F:3 H:2',
        thermo=(NASA([200.00, 1000.00],
                     [ 1.34294000E+00,  4.37082000E-02, -4.41291000E-05,
                       1.98066000E-08, -2.52758000E-12, -4.70859000E+04,
                       2.02494000E+01]),
                NASA([1000.00, 6000.00],
                     [ 1.25860000E+01,  8.12318000E-03, -2.95983000E-06,
                       4.80632000E-10, -2.89086000E-14, -4.99278000E+04,
                      -3.65972000E+01])),
        transport=gas_transport(geom='nonlinear',
                                diam=4.7,
                                well_depth=333.0,