units(length='cm', time='s', quantity='mol', act_energy='kcal/mol')

ideal_gas(name='gas',
          elements="H D T C Ci O Oi N Ne Ar He Si S F Cl Br I X",
          species="""Ar                N2                Ne
                     CH2F2(1)          C3H8(2)           O2(3)
                     H2O(4)            H(5)              O(6)
                     OH(7)             H2(8)             He(9)
                     HO2(10)           H2O2(11)          C2H4(12)
                     CH3(13)           HCO(14)           CH3CO(15)
                     CH2CHO(16)        C2H3(17)          CH2(18)
                     CH2O(19)          CH2CO(20)         CH4(21)
                     CO(22)            C2H2(23)          CHF2(24)
                     CHF2OO(25)        CF2O(26)          CO2(27)
                     CH3O(35)          C2H6(36)          C2H5(37)
                     OCHO(42)          HOCHO(44)         CH3O2(49)
                     C2H5O2(51)        NC3H7(95)         IC3H7(96)
                     C3H5-A(97)        C3H6(98)          NC3H7O2(99)
                     IC3H7O2(101)      C3H6OOH1-3(118)   C3H4-A(170)
                     C3H4-P(172)       C4H8-1(193)       C4H8-2(194)
                     C6H101-5(346)     F(686)            HF(687)
                     CHF(689)          CHF3(690)         CF2(691)
                     CHFO(695)         CHFCF2(702)       C2HF(705)
                     C2F2(707)         CHF2-CF2(716)     CHFCF[Z](719)
                     CF2CH(720)        [CH]C(771)        [O]C[O](783)
                     C3H4O2(842)       [CH2]C[CH2](884)  [CH2]C[CH]C(888)
                     C[C]C-2(910)      [O]C(F)F(923)     OOC(F)F(940)
                     [CH2]CC(F)F(941)  FC(F)C(F)F(1007)  OO[C](F)F(1046)
                     F[C]C(F)F(1113)   FC1OO1(1274)      [O]C([O])F(1276)
                     CFO2(1293)        C2HF4O2(2464)     C1OO1(2723)
                     C3H5O2(3303)      [CH]1COOC1(3536)  C[C]CC(4597)
                     C3F4(5216)        C3F4(5688)        C2HF(7121)
                     C3H4(7636)""",
          reactions='all',
          transport='Mix',
          initial_state=state(temperature=300.0, pressure=OneAtm))

#-------------------------------------------------------------------------------
# Element data
#-------------------------------------------------------------------------------

element(symbol='Ci', atomic_mass=13.003)
element(symbol='D', atomic_mass=2.014)
element(symbol='Oi', atomic_mass=17.999)
element(symbol='T', atomic_mass=3.016)
element(symbol='X', atomic_mass=195.083)
#-------------------------------------------------------------------------------
# Species data
#-------------------------------------------------------------------------------

species(name='Ar',
        atoms='Ar:1',
        thermo=(NASA([100.00, 4230.24],
                     [ 2.50000000E+00,  9.05028667E-14, -1.20494648E-16,
                       5.23431737E-20, -6.99813850E-24, -7.45000000E+02,
                       4.36630363E+00]),
                NASA([4230.24, 5000.00],
                     [ 2.49999605E+00,  3.58763060E-09, -1.22015473E-12,
                       1.84118067E-16, -1.04000002E-20, -7.44996527E+02,
                       4.36632854E+00])),
        transport=gas_transport(geom='atom',
                                diam=3.33,
                                well_depth=136.501))

species(name='N2',
        atoms='N:2',
        thermo=(NASA([100.00, 1817.04],
                     [ 3.61262579E+00, -1.00892969E-03,  2.49898386E-06,
                      -1.43375532E-09,  2.58635481E-13, -1.05110288E+03,
                       2.65270392E+00]),
                NASA([1817.04, 5000.00],
                     [ 2.97590468E+00,  1.64140636E-03, -7.19719961E-07,
                       1.25377269E-10, -7.91523423E-15, -1.02584522E+03,
                       5.53755093E+00])),
        transport=gas_transport(geom='linear',
                                diam=3.621,
                                well_depth=97.53,
                                polar=1.76,
                                rot_relax=4.0))

species(name='Ne',
        atoms='Ne:1',
        thermo=(NASA([200.00, 1000.00],
                     [ 2.50000000E+00,  0.00000000E+00,  0.00000000E+00,
                       0.00000000E+00,  0.00000000E+00, -7.45375000E+02,
                       3.35532000E+00]),
                NASA([1000.00, 6000.00],
                     [ 2.50000000E+00,  0.00000000E+00,  0.00000000E+00,
                       0.00000000E+00,  0.00000000E+00, -7.45375000E+02,
                       3.35532000E+00])),
        transport=gas_transport(geom='atom',
                                diam=3.758,
                                well_depth=148.6))

species(name='CH2F2(1)',
        atoms='C:1 F:2 H:2',
        thermo=(NASA([298.00, 1100.00],
                     [ 1.73901000E+00,  1.19379000E-02, -2.69321000E-07,
                      -5.51894000E-09,  2.18135000E-12, -5.54397000E+04,
                       1.62342000E+01]),
                NASA([1100.00, 3000.00],
                     [ 4.55850000E+00,  8.31979000E-03, -3.37157000E-06,
                       6.18797000E-10, -4.19515000E-14, -5.65062000E+04,
                       4.36637000E-01])),
        transport=gas_transport(geom='nonlinear',
                                diam=4.123,
                                well_depth=262.0,
                                dipole=1.8))

species(name='C3H8(2)',
        atoms='C:3 H:8',
        thermo=(NASA([200.00, 1000.00],
                     [ 4.21093000E+00,  1.70887000E-03,  7.06530000E-05,
                      -9.20061000E-08,  3.64618000E-11, -1.43811000E+04,
                       5.61004000E+00]),
                NASA([1000.00, 6000.00],
                     [ 6.66920000E+00,  2.06109000E-02, -7.36512000E-06,
                       1.18434000E-09, -7.06915000E-14, -1.62754000E+04,
                      -1.31943000E+01])),
        transport=gas_transport(geom='nonlinear',
                                diam=4.982,
                                well_depth=266.801,
                                rot_relax=1.0))

species(name='O2(3)',
        atoms='O:2',
        thermo=(NASA([100.00, 1087.71],
                     [ 3.53763590E+00, -1.22826414E-03,  5.36754945E-06,
                      -4.93123595E-09,  1.45953310E-12, -1.03799021E+03,
                       4.67180153E+00]),
                NASA([1087.71, 5000.00],
                     [ 3.16427834E+00,  1.69452716E-03, -8.00330037E-07,
                       1.59028740E-10, -1.14889946E-14, -1.04844808E+03,
                       6.08299572E+00])),
        transport=gas_transport(geom='linear',
                                diam=3.458,
                                well_depth=107.4,
                                polar=1.6,
                                rot_relax=3.8))

species(name='H2O(4)',
        atoms='H:2 O:1',
        thermo=(NASA([100.00, 1281.44],
                     [ 3.99882014E+00, -5.54832394E-04,  2.76774572E-06,
                      -1.55665272E-09,  3.02331244E-13, -3.02745569E+04,
                      -3.08947504E-02]),
                NASA([1281.44, 5000.00],
                     [ 3.19560471E+00,  1.95239831E-03, -1.67117207E-07,
                      -2.97940900E-11,  4.45141200E-15, -3.00687027E+04,
                       4.04333933E+00])),
        transport=gas_transport(geom='nonlinear',
                                diam=2.605,
                                well_depth=572.402,
                                dipole=1.844,
                                rot_relax=4.0))

species(name='H(5)',
        atoms='H:1',
        thermo=(NASA([100.00, 4230.24],
                     [ 2.50000000E+00,  9.05028667E-14, -1.20494648E-16,
                       5.23431737E-20, -6.99813850E-24,  2.54727081E+04,
                      -4.59566246E-01]),
                NASA([4230.24, 5000.00],
                     [ 2.49999605E+00,  3.58763060E-09, -1.22015473E-12,
                       1.84118067E-16, -1.04000002E-20,  2.54727116E+04,
                      -4.59541342E-01])),
        transport=gas_transport(geom='atom',
                                diam=2.05,
                                well_depth=145.0))

species(name='O(6)',
        atoms='O:1',
        thermo=(NASA([100.00, 4230.24],
                     [ 2.50000000E+00,  9.05028667E-14, -1.20494648E-16,
                       5.23431737E-20, -6.99813850E-24,  2.92267216E+04,
                       5.11106770E+00]),
                NASA([4230.24, 5000.00],
                     [ 2.49999605E+00,  3.58763060E-09, -1.22015473E-12,
                       1.84118067E-16, -1.04000002E-20,  2.92267251E+04,
                       5.11109261E+00])),
        transport=gas_transport(geom='atom',
                                diam=2.75,
                                well_depth=80.0))

species(name='OH(7)',
        atoms='H:1 O:1',
        thermo=(NASA([100.00, 1005.24],
                     [ 3.48579394E+00,  1.33398989E-03, -4.70051011E-06,
                       5.64389308E-09, -2.06321981E-12,  3.41195711E+03,
                       1.99788355E+00]),
                NASA([1005.24, 5000.00],
                     [ 2.88226042E+00,  1.03867454E-03, -2.35644228E-07,
                       1.40211453E-11,  6.34730016E-16,  3.66955674E+03,
                       5.59048812E+00])),
        transport=gas_transport(geom='linear',
                                diam=2.75,
                                well_depth=80.0))

species(name='H2(8)',
        atoms='H:2',
        thermo=(NASA([100.00, 1962.85],
                     [ 3.42253751E+00,  2.86648541E-04, -4.14668028E-07,
                       4.27545895E-10, -9.38113701E-14, -1.02978491E+03,
                      -3.86364791E+00]),
                NASA([1962.85, 5000.00],
                     [ 2.74217359E+00,  5.79557648E-04,  1.97194265E-07,
                      -6.41077507E-11,  4.95990737E-15, -5.52029526E+02,
                       4.14180395E-01])),
        transport=gas_transport(geom='linear',
                                diam=2.92,
                                well_depth=38.0,
                                polar=0.79,
                                rot_relax=280.0))

species(name='He(9)',
        atoms='He:1',
        thermo=(NASA([100.00, 4230.24],
                     [ 2.50000000E+00,  9.05028667E-14, -1.20494648E-16,
                       5.23431737E-20, -6.99813850E-24, -7.45000000E+02,
                       9.14221530E-01]),
                NASA([4230.24, 5000.00],
                     [ 2.49999605E+00,  3.58763060E-09, -1.22015473E-12,
                       1.84118067E-16, -1.04000002E-20, -7.44996527E+02,
                       9.14246435E-01])),
        transport=gas_transport(geom='atom',
                                diam=2.576,
                                well_depth=10.2))

species(name='HO2(10)',
        atoms='H:1 O:2',
        thermo=(NASA([100.00, 923.90],
                     [ 4.02957550E+00, -2.64004439E-03,  1.52237488E-05,
                      -1.71681412E-08,  6.26784209E-12,  3.22676616E+02,
                       4.84422466E+00]),
                NASA([923.90, 5000.00],
                     [ 4.15128659E+00,  1.91154033E-03, -4.11321240E-07,
                       6.35069612E-11, -4.86479188E-15,  8.34394148E+01,
                       3.09366460E+00])),
        transport=gas_transport(geom='nonlinear',
                                diam=3.458,
                                well_depth=107.4,
                                rot_relax=1.0))

species(name='H2O2(11)',
        atoms='H:2 O:2',
        thermo=(NASA([100.00, 923.29],
                     [ 3.72865815E+00,  4.13392343E-03,  5.67441550E-06,
                      -1.01857885E-08,  4.28576458E-12, -1.76963954E+04,
                       5.35915813E+00]),
                NASA([923.29, 5000.00],
                     [ 4.95155368E+00,  3.54223553E-03, -1.01037036E-06,
                       1.61933126E-10, -1.10202137E-14, -1.81228086E+04,
                      -1.52931934E+00])),
        transport=gas_transport(geom='nonlinear',
                                diam=3.458,
                                well_depth=107.4,
                                rot_relax=3.8))

species(name='C2H4(12)',
        atoms='C:2 H:4',
        thermo=(NASA([200.00, 1000.00],
                     [ 3.95920000E+00, -7.57051000E-03,  5.70990000E-05,
                      -6.91588000E-08,  2.69884000E-11,  5.08978000E+03,
                       4.09730000E+00]),
                NASA([1000.00, 6000.00],
                     [ 3.99183000E+00,  1.04834000E-02, -3.71721000E-06,
                       5.94628000E-10, -3.53630000E-14,  4.26866000E+03,
                      -2.69082000E-01])),
        transport=gas_transport(geom='nonlinear',
                                diam=3.971,
                                well_depth=280.801,
                                rot_relax=1.5))

species(name='CH3(13)',
        atoms='C:1 H:3',
        thermo=(NASA([200.00, 1000.00],
                     [ 3.65718000E+00,  2.12660000E-03,  5.45839000E-06,
                      -6.61810000E-09,  2.46571000E-12,  1.64227000E+04,
                       1.67354000E+00]),
                NASA([1000.00, 6000.00],
                     [ 2.97812000E+00,  5.79785000E-03, -1.97558000E-06,
                       3.07298000E-10, -1.79174000E-14,  1.65095000E+04,
                       4.72248000E+00])),
        transport=gas_transport(geom='nonlinear',
                                diam=3.8,
                                well_depth=144.001))

species(name='HCO(14)',
        atoms='C:1 H:1 O:1',
        thermo=(NASA([200.00, 1000.00],
                     [ 4.23755000E+00, -3.32075000E-03,  1.40030000E-05,
                      -1.34240000E-08,  4.37416000E-12,  3.87241000E+03,
                       3.30835000E+00]),
                NASA([1000.00, 6000.00],
                     [ 3.92002000E+00,  2.52279000E-03, -6.71004000E-07,
                       1.05616000E-10, -7.43798000E-15,  3.65343000E+03,
                       3.58077000E+00])),
        transport=gas_transport(geom='nonlinear',
                                diam=3.59,
                                well_depth=498.002))

species(name='CH3CO(15)',
        atoms='C:2 H:3 O:1',
        thermo=(NASA([200.00, 1000.00],
                     [ 4.03587000E+00,  8.77295000E-04,  3.07100000E-05,
                      -3.92476000E-08,  1.52969000E-11, -2.68207000E+03,
                       7.86177000E+00]),
                NASA([1000.00, 6000.00],
                     [ 5.31372000E+00,  9.17378000E-03, -3.32204000E-06,
                       5.39475000E-10, -3.24524000E-14, -3.64504000E+03,
                      -1.67576000E+00])),
        transport=gas_transport(geom='nonlinear',
                                diam=3.97,
                                well_depth=436.001,
                                rot_relax=2.0))

species(name='CH2CHO(16)',
        atoms='C:2 H:3 O:1',
        thermo=(NASA([200.00, 1000.00],
                     [ 2.66874000E+00,  9.62330000E-03,  1.60617000E-05,
                      -2.87682000E-08,  1.25030000E-11,  2.19438000E+02,
                       1.25694000E+01]),
                NASA([1000.00, 6000.00],
                     [ 5.91637000E+00,  8.84650000E-03, -3.14955000E-06,
                       5.05413000E-10, -3.01305000E-14, -1.04780000E+03,
                      -6.10650000E+00])),
        transport=gas_transport(geom='nonlinear',
                                diam=3.97,
                                well_depth=436.001,
                                rot_relax=2.0))

species(name='C2H3(17)',
        atoms='C:2 H:3',
        thermo=(NASA([200.00, 1000.00],
                     [ 3.36378000E+00,  2.65766000E-04,  2.79621000E-05,
                      -3.72987000E-08,  1.51590000E-11,  3.44750000E+04,
                       7.91510000E+00]),
                NASA([1000.00, 6000.00],
                     [ 4.15027000E+00,  7.54021000E-03, -2.62998000E-06,
                       4.15974000E-10, -2.45408000E-14,  3.38566000E+04,
                       1.72812000E+00])),
        transport=gas_transport(geom='nonlinear',
                                diam=4.1,
                                well_depth=209.001,
                                rot_relax=1.0))

species(name='CH2(18)',
        atoms='C:1 H:2',
        thermo=(NASA([100.00, 1104.65],
                     [ 4.01192375E+00, -1.54977502E-04,  3.26297499E-06,
                      -2.40421511E-09,  5.69495776E-13,  4.58676802E+04,
                       5.33200966E-01]),
                NASA([1104.65, 5000.00],
                     [ 3.14983330E+00,  2.96674362E-03, -9.76056467E-07,
                       1.54115432E-10, -9.50339412E-15,  4.60581392E+04,
                       4.77807981E+00])),
        transport=gas_transport(geom='nonlinear',
                                diam=3.8,
                                well_depth=144.001))

species(name='CH2O(19)',
        atoms='C:1 H:2 O:1',
        thermo=(NASA([200.00, 1000.00],
                     [ 4.79372000E+00, -9.90833000E-03,  3.73220000E-05,
                      -3.79285000E-08,  1.31773000E-11, -1.43792000E+04,
                       6.02798000E-01]),
                NASA([1000.00, 6000.00],
                     [ 3.16953000E+00,  6.19321000E-03, -2.25056000E-06,
                       3.65976000E-10, -2.20149000E-14, -1.45487000E+04,
                       6.04208000E+00])),
        transport=gas_transport(geom='nonlinear',
                                diam=3.59,
                                well_depth=498.002,
                                rot_relax=2.0))

species(name='CH2CO(20)',
        atoms='C:2 H:2 O:1',
        thermo=(NASA([200.00, 1000.00],
                     [ 2.13241000E+00,  1.81319000E-02, -1.74093000E-05,
                       9.35336000E-09, -2.01725000E-12, -7.14809000E+03,
                       1.33808000E+01]),
                NASA([1000.00, 6000.00],
                     [ 5.75871000E+00,  6.35124000E-03, -2.25955000E-06,
                       3.62322000E-10, -2.15856000E-14, -8.08533000E+03,
                      -4.96490000E+00])),
        transport=gas_transport(geom='nonlinear',
                                diam=3.97,
                                well_depth=436.001,
                                rot_relax=2.0))

species(name='CH4(21)',
        atoms='C:1 H:4',
        thermo=(NASA([100.00, 1084.11],
                     [ 4.20542250E+00, -5.35565721E-03,  2.51126079E-05,
                      -2.13766307E-08,  5.97537828E-12, -1.01619436E+04,
                      -9.21305438E-01]),
                NASA([1084.11, 5000.00],
                     [ 9.08223900E-01,  1.14541547E-02, -4.57177713E-06,
                       8.29200696E-10, -5.66322286E-14, -9.71995611E+03,
                       1.39933313E+01])),
        transport=gas_transport(geom='nonlinear',
                                diam=3.746,
                                well_depth=141.4,
                                polar=2.6,
                                rot_relax=13.0))

species(name='CO(22)',
        atoms='C:1 O:1',
        thermo=(NASA([100.00, 1669.91],
                     [ 3.59709809E+00, -1.02425126E-03,  2.83339744E-06,
                      -1.75828196E-09,  3.42595421E-13, -1.43431900E+04,
                       3.45821633E+00]),
                NASA([1669.91, 5000.00],
                     [ 2.92789447E+00,  1.81939224E-03, -8.35350932E-07,
                       1.51278088E-10, -9.88939670E-15, -1.42926749E+04,
                       6.51193118E+00])),
        transport=gas_transport(geom='linear',
                                diam=3.65,
                                well_depth=98.1,
                                polar=1.95,
                                rot_relax=1.8))

species(name='C2H2(23)',
        atoms='C:2 H:2',
        thermo=(NASA([200.00, 1000.00],
                     [ 8.08680000E-01,  2.33616000E-02, -3.55172000E-05,
                       2.80153000E-08, -8.50075000E-12,  2.64290000E+04,
                       1.39397000E+01]),
                NASA([1000.00, 6000.00],
                     [ 4.65878000E+00,  4.88397000E-03, -1.60829000E-06,
                       2.46975000E-10, -1.38606000E-14,  2.57594000E+04,
                      -3.99838000E+00])),
        transport=gas_transport(geom='linear',
                                diam=4.1,
                                well_depth=209.001,
                                rot_relax=2.5))

species(name='CHF2(24)',
        atoms='C:1 F:2 H:1',
        thermo=(NASA([298.00, 1150.00],
                     [ 1.83276000E+00,  1.34164000E-02, -9.54328000E-06,
                       2.95930000E-09, -2.79200000E-13, -3.08571000E+04,
                       1.67589000E+01]),
                NASA([1150.00, 3000.00],
                     [ 5.44828000E+00,  4.41165000E-03, -1.74189000E-06,
                       3.09200000E-10, -2.01762000E-14, -3.19610000E+04,
                      -2.29455000E+00])),
        transport=gas_transport(geom='nonlinear',
                                diam=4.123,
                                well_depth=262.0,
                                dipole=1.8))

species(name='CHF2OO(25)',
        atoms='C:1 F:2 H:1 O:2',
        thermo=(NASA([10.00, 497.32],
                     [ 3.92725000E+00,  4.70123000E-03,  7.24333000E-05,
                      -1.66658000E-07,  1.13367000E-10, -5.14702000E+04,
                       1.15590000E+01]),
                NASA([497.32, 3000.00],
                     [ 3.77619000E+00,  1.96241000E-02, -1.39226000E-05,
                       4.52949000E-09, -5.50671000E-13, -5.16247000E+04,
                       1.04780000E+01])),
        transport=gas_transport(geom='nonlinear',
                                diam=5.198,
                                well_depth=386.937))

species(name='CF2O(26)',
        atoms='C:1 F:2 O:1',
        thermo=(NASA([298.00, 1150.00],
                     [ 1.17614000E+00,  2.10870000E-02, -2.39216000E-05,
                       1.39949000E-08, -3.37605000E-12, -7.79513000E+04,
                       1.91134000E+01]),
                NASA([1150.00, 3000.00],
                     [ 6.79131000E+00,  3.38305000E-03, -1.43012000E-06,
                       2.71226000E-10, -1.90524000E-14, -7.94540000E+04,
                      -9.48312000E+00])),
        transport=gas_transport(geom='nonlinear',
                                diam=4.906,
                                well_depth=350.5))

species(name='CO2(27)',
        atoms='C:1 O:2',
        thermo=(NASA([100.00, 988.20],
                     [ 3.27789280E+00,  2.75794127E-03,  7.12745575E-06,
                      -1.07849089E-08,  4.14204008E-12, -4.84756027E+04,
                       5.97859287E+00]),
                NASA([988.20, 5000.00],
                     [ 4.55075032E+00,  2.90721838E-03, -1.14639377E-06,
                       2.25788919E-10, -1.69518941E-14, -4.89860251E+04,
                      -1.45683238E+00])),
        transport=gas_transport(geom='linear',
                                diam=3.763,
                                well_depth=244.001,
                                polar=2.65,
                                rot_relax=2.1))

species(name='CH3O(35)',
        atoms='C:1 H:3 O:1',
        thermo=(NASA([200.00, 1000.00],
                     [ 3.71181000E+00, -2.80463000E-03,  3.76551000E-05,
                      -4.73072000E-08,  1.86588000E-11,  1.29570000E+03,
                       6.57241000E+00]),
                NASA([1000.00, 6000.00],
                     [ 4.75779000E+00,  7.44142000E-03, -2.69705000E-06,
                       4.38091000E-10, -2.63537000E-14,  3.78112000E+02,
                      -1.96680000E+00])),
        transport=gas_transport(geom='nonlinear',
                                diam=3.69,
                                well_depth=417.002,
                                dipole=1.7,
                                rot_relax=2.0))

species(name='C2H6(36)',
        atoms='C:2 H:6',
        thermo=(NASA([200.00, 1000.00],
                     [ 4.29143000E+00, -5.50155000E-03,  5.99438000E-05,
                      -7.08466000E-08,  2.68686000E-11, -1.15222000E+04,
                       2.66679000E+00]),
                NASA([1000.00, 6000.00],
                     [ 4.04666000E+00,  1.53539000E-02, -5.47039000E-06,
                       8.77827000E-10, -5.23168000E-14, -1.24473000E+04,
                      -9.68698000E-01])),
        transport=gas_transport(geom='nonlinear',
                                diam=4.302,
                                well_depth=252.301,
                                rot_relax=1.5))

species(name='C2H5(37)',
        atoms='C:2 H:5',
        thermo=(NASA([200.00, 1000.00],
                     [ 4.24186000E+00, -3.56905000E-03,  4.82667000E-05,
                      -5.85401000E-08,  2.25805000E-11,  1.29690000E+04,
                       4.44704000E+00]),
                NASA([1000.00, 6000.00],
                     [ 4.32196000E+00,  1.23931000E-02, -4.39681000E-06,
                       7.03520000E-10, -4.18435000E-14,  1.21759000E+04,
                       1.71104000E-01])),
        transport=gas_transport(geom='nonlinear',
                                diam=4.302,
                                well_depth=252.301,
                                rot_relax=1.5))

species(name='OCHO(42)',
        atoms='C:1 H:1 O:2',
        thermo=(NASA([200.00, 1000.00],
                     [ 4.68826000E+00, -4.14872000E-03,  2.55066000E-05,
                      -2.84474000E-08,  1.04423000E-11, -1.69867000E+04,
                       4.28426000E+00]),
                NASA([1000.00, 6000.00],
                     [ 4.14394000E+00,  5.59739000E-03, -1.99794000E-06,
                       3.16179000E-10, -1.85614000E-14, -1.72460000E+04,
                       5.07779000E+00])),
        transport=gas_transport(geom='nonlinear',
                                diam=3.59,
                                well_depth=498.0,
                                rot_relax=2.0))

species(name='HOCHO(44)',
        atoms='C:1 H:2 O:2',
        thermo=(NASA([200.00, 1000.00],
                     [ 3.89836000E+00, -3.55878000E-03,  3.55205000E-05,
                      -4.38500000E-08,  1.71078000E-11, -4.67706000E+04,
                       7.34954000E+00]),
                NASA([1000.00, 6000.00],
                     [ 4.61383000E+00,  6.44964000E-03, -2.29083000E-06,
                       3.67160000E-10, -2.18737000E-14, -4.75148000E+04,
                       8.47884000E-01])),
        transport=gas_transport(geom='nonlinear',
                                diam=3.626,
                                well_depth=481.8,
                                dipole=1.7,
                                rot_relax=1.0))

species(name='CH3O2(49)',
        atoms='C:1 H:3 O:2',
        thermo=(NASA([200.00, 1000.00],
                     [ 4.97170000E+00, -5.29357000E-03,  4.77334000E-05,
                      -5.77066000E-08,  2.22220000E-11, -1.29022000E+02,
                       2.81501000E+00]),
                NASA([1000.00, 6000.00],
                     [ 5.55530000E+00,  9.12236000E-03, -3.23852000E-06,
                       5.18714000E-10, -3.08834000E-14, -1.03569000E+03,
                      -3.99159000E+00])),
        transport=gas_transport(geom='nonlinear',
                                diam=3.69,
                                well_depth=417.0,
                                dipole=1.7,
                                rot_relax=2.0))

species(name='C2H5O2(51)',
        atoms='C:2 H:5 O:2',
        thermo=(NASA([200.00, 1389.00],
                     [ 3.90352000E+00,  2.22599000E-02, -1.01610000E-05,
                       1.71710000E-09,  1.88167000E-14, -5.09654000E+03,
                       8.98723000E+00]),
                NASA([1389.00, 5000.00],
                     [ 9.50283000E+00,  1.20430000E-02, -4.09492000E-06,
                       6.33049000E-10, -3.66134000E-14, -7.37069000E+03,
                      -2.21717000E+01])),
        transport=gas_transport(geom='nonlinear',
                                diam=4.037,
                                well_depth=395.0,
                                dipole=1.3,
                                rot_relax=1.0))

species(name='NC3H7(95)',
        atoms='C:3 H:7',
        thermo=(NASA([200.00, 1000.00],
                     [ 4.08211000E+00,  5.23240000E-03,  5.13554000E-05,
                      -6.99344000E-08,  2.81819000E-11,  1.04075000E+04,
                       8.39535000E+00]),
                NASA([1000.00, 6000.00],
                     [ 6.49637000E+00,  1.77338000E-02, -6.24898000E-06,
                       9.95389000E-10, -5.90200000E-14,  8.85974000E+03,
                      -8.56390000E+00])),
        transport=gas_transport(geom='nonlinear',
                                diam=4.982,
                                well_depth=266.801,
                                rot_relax=1.0))

species(name='IC3H7(96)',
        atoms='C:3 H:7',
        thermo=(NASA([200.00, 1000.00],
                     [ 5.47421000E+00, -8.42537000E-03,  8.04608000E-05,
                      -9.49288000E-08,  3.59831000E-11,  9.04939000E+03,
                       3.40542000E+00]),
                NASA([1000.00, 6000.00],
                     [ 5.30597000E+00,  1.89855000E-02, -6.74315000E-06,
                       1.07994000E-09, -6.42785000E-14,  7.78749000E+03,
                      -2.23234000E+00])),
        transport=gas_transport(geom='nonlinear',
                                diam=4.982,
                                well_depth=266.801,
                                rot_relax=1.0))

species(name='C3H5-A(97)',
        atoms='C:3 H:5',